!  NUMFREQ B3LYP def2-TZVP CPCM D3 
%pal nprocs 102 end
%cpcm epsilon 78.4 end 
*xyz 0 1 
C   2.23659993915282 -0.6435112039871 -0.38255235474072
H   2.85668617077905 -0.8759348629143 -1.24802776941282
N   1.62331586348981 -3.01426313268372 -0.22972573960462
O   2.43778497458486 -3.82540835855293 -0.64386059175668
O   0.42407690929848 -3.08231850480921 -0.4462584711348
H   1.7304721762585 -0.79154448355035 2.37123656361973
C   2.1493112665321 -1.82960115020821 0.56966130979565
H   3.14402382945784 -2.1465794049607 0.86845746085814
H   1.24290488458398 -0.34293748840391 -0.71587194121276
C   1.26574013814485 -1.57819005227671 1.77612952373779
H   0.27205513719699 -1.24739740545957 1.47729201254762
C   5.80914641708498 -0.84935098919896 -0.36924728239324
C   6.16140700586554 -1.31618952923967 -1.62827324905671
C   6.43152198594683 -2.67024226133892 -1.78358288165247
C   6.34109112553602 -3.50270317204538 -0.67478318373737
C   5.98214257250945 -2.94660748318323 0.54543638904831
N   5.71937646732907 -1.64525022014113 0.70030072885059
H   6.21772448973711 -0.63213729977152 -2.46420579002491
H   6.70571577405953 -3.06980791494702 -2.75157144933179
H   6.54054474196396 -4.56307714018744 -0.75050183758097
H   2.6928321104791 0.18946743828515 0.15234382295256
H   1.17716398461417 -2.47078021636903 2.39613020105323
H   5.89450644080136 -3.56407526939661 1.43214859862943
H   5.58389729583913 0.19870163587927 -0.2096520842953
H   4.0422510524055 -1.28468683871341 3.39732639543394
H   5.08725038551477 -1.01320000041164 2.28905675396194
O   4.73506686083378 -0.66365469141359 3.14462486544623
*
