17
Coordinates from ORCA-job neb E -1009.621947899091
  C      -2.395541     -0.830749     -0.241313
  H      -3.132833     -0.096047     -0.543508
  H      -1.210058     -0.456043     -0.918129
  H      -2.611346     -1.856746     -0.516718
  N      -2.135052     -0.733297      1.133206
  O      -1.693826     -1.724880      1.750001
  O      -2.276351      0.364646      1.710208
  C       2.335042      1.402929     -0.124480
  O       3.216369      2.227681      0.071495
  O       1.589293      1.414987     -1.190607
  C       2.072065      0.321110      0.917695
  Cl      2.485938     -1.315938      0.264313
  H       1.024696      0.292596      1.210969
  H       2.711364      0.481713      1.778081
  H      -0.529913      0.002131     -2.463320
  O      -0.227850     -0.172421     -1.562618
  H       0.778004      0.678326     -1.275276
17
Coordinates from ORCA-job neb E -1009.622239793237
  C      -2.371776     -0.835025     -0.235794
  H      -3.127759     -0.116355     -0.532492
  H      -1.207560     -0.453132     -0.924729
  H      -2.579464     -1.867846     -0.494637
  N      -2.092897     -0.718679      1.135617
  O      -1.620100     -1.694043      1.753720
  O      -2.239625      0.383758      1.701180
  C       2.325892      1.389883     -0.119568
  O       3.211668      2.205058      0.095318
  O       1.596503      1.413395     -1.196086
  C       2.029877      0.310306      0.916417
  Cl      2.450140     -1.330007      0.275114
  H       0.975039      0.288250      1.182285
  H       2.647486      0.467400      1.793073
  H      -0.544797      0.032934     -2.474825
  O      -0.229575     -0.158112     -1.581802
  H       0.776947      0.682216     -1.292791
17
Coordinates from ORCA-job neb E -1009.622539714753
  C      -2.356208     -0.840433     -0.222847
  H      -3.123365     -0.132246     -0.514349
  H      -1.194381     -0.445467     -0.941450
  H      -2.548431     -1.876247     -0.476101
  N      -2.052845     -0.710564      1.140287
  O      -1.555950     -1.675540      1.757168
  O      -2.214338      0.391240      1.705039
  C       2.319088      1.378430     -0.114938
  O       3.215507      2.178186      0.111707
  O       1.609753      1.409126     -1.205532
  C       1.987650      0.305742      0.916934
  Cl      2.402876     -1.340803      0.289048
  H       0.926928      0.296734      1.158319
  H       2.586705      0.458185      1.807156
  H      -0.558886      0.061698     -2.491937
  O      -0.231130     -0.147030     -1.607592
  H       0.787028      0.688991     -1.310913
17
Coordinates from ORCA-job neb E -1009.622841177003
  C      -2.326348     -0.843270     -0.215826
  H      -3.112143     -0.149605     -0.493851
  H      -1.187622     -0.440815     -0.949255
  H      -2.511654     -1.884008     -0.458286
  N      -2.000559     -0.701999      1.142700
  O      -1.467116     -1.652033      1.751145
  O      -2.169647      0.399563      1.704223
  C       2.309658      1.362000     -0.111518
  O       3.218075      2.143169      0.131021
  O       1.623241      1.402288     -1.216048
  C       1.932643      0.301859      0.918203
  Cl      2.334499     -1.355612      0.310547
  H       0.866197      0.312755      1.131566
  H       2.510742      0.449054      1.823089
  H      -0.577138      0.096568     -2.503749
  O      -0.232815     -0.131470     -1.630279
  H       0.789989      0.691557     -1.333683
17
Coordinates from ORCA-job neb E -1009.623166014617
  C      -2.288725     -0.846565     -0.201645
  H      -3.094936     -0.166184     -0.452613
  H      -1.173903     -0.429500     -0.967631
  H      -2.464367     -1.889453     -0.440954
  N      -1.921720     -0.702055      1.146276
  O      -1.349736     -1.642548      1.734247
  O      -2.103703      0.391373      1.719602
  C       2.303222      1.332589     -0.112135
  O       3.230837      2.084570      0.148054
  O       1.652711      1.380478     -1.238420
  C       1.851695      0.307533      0.922994
  Cl      2.227193     -1.373761      0.366334
  H       0.778785      0.355187      1.091423
  H       2.396196      0.456964      1.848105
  H      -0.608472      0.157623     -2.522695
  O      -0.238007     -0.108199     -1.670925
  H       0.802930      0.691948     -1.370018
17
Coordinates from ORCA-job neb E -1009.623342697876
  C      -2.273039     -0.848099     -0.197526
  H      -3.091912     -0.184110     -0.451435
  H      -1.171558     -0.428929     -0.970383
  H      -2.436024     -1.896739     -0.420521
  N      -1.899464     -0.679001      1.146406
  O      -1.304833     -1.600164      1.741648
  O      -2.090139      0.421022      1.703490
  C       2.286190      1.327120     -0.101227
  O       3.214143      2.074049      0.171762
  O       1.650664      1.378580     -1.235779
  C       1.829723      0.289450      0.918801
  Cl      2.240679     -1.381651      0.356013
  H       0.753614      0.320727      1.067934
  H       2.355161      0.439636      1.854709
  H      -0.621982      0.178995     -2.523816
  O      -0.240072     -0.103400     -1.682659
  H       0.798849      0.692514     -1.377416
17
Coordinates from ORCA-job neb E -1009.623508103111
  C      -2.258235     -0.848793     -0.190199
  H      -3.089596     -0.203439     -0.451036
  H      -1.167246     -0.426892     -0.975188
  H      -2.403807     -1.903604     -0.394097
  N      -1.876858     -0.647458      1.146735
  O      -1.263169     -1.547246      1.755206
  O      -2.084781      0.458868      1.685193
  C       2.270924      1.317710     -0.090443
  O       3.183876      2.074118      0.205791
  O       1.644606      1.381379     -1.229620
  C       1.811188      0.262756      0.910048
  Cl      2.272573     -1.392199      0.339474
  H       0.731716      0.268800      1.034135
  H       2.311212      0.414611      1.859479
  H      -0.635032      0.195306     -2.527162
  O      -0.242042     -0.099838     -1.695626
  H       0.794671      0.695921     -1.382691
17
Coordinates from ORCA-job neb E -1009.623649184405
  C      -2.245244     -0.850746     -0.186164
  H      -3.090547     -0.230078     -0.461680
  H      -1.167493     -0.429796     -0.975587
  H      -2.370116     -1.913350     -0.361651
  N      -1.863102     -0.605057      1.143284
  O      -1.224673     -1.473622      1.771033
  O      -2.085195      0.513604      1.649064
  C       2.244665      1.317812     -0.070057
  O       3.147310      2.079291      0.244291
  O       1.627167      1.390515     -1.213298
  C       1.802948      0.228913      0.901666
  Cl      2.317017     -1.397886      0.295910
  H       0.723173      0.200646      1.013785
  H       2.288219      0.371978      1.860055
  H      -0.643993      0.199536     -2.528114
  O      -0.242827     -0.100896     -1.702503
  H       0.782691      0.699136     -1.380034
17
Coordinates from ORCA-job neb E -1009.623756727778
  C      -2.235051     -0.853070     -0.179851
  H      -3.093857     -0.258879     -0.470811
  H      -1.167984     -0.431890     -0.980938
  H      -2.335380     -1.922451     -0.325638
  N      -1.848167     -0.558040      1.137222
  O      -1.186008     -1.393254      1.785843
  O      -2.087826      0.571780      1.609329
  C       2.221024      1.313193     -0.049555
  O       3.101325      2.090106      0.289347
  O       1.605199      1.401707     -1.192890
  C       1.799665      0.191299      0.893041
  Cl      2.366886     -1.404608      0.253984
  H       0.720915      0.126852      0.993444
  H       2.270621      0.325464      1.859813
  H      -0.654995      0.201328     -2.533500
  O      -0.245814     -0.103185     -1.713449
  H       0.769447      0.703648     -1.375390
17
Coordinates from ORCA-job neb E -1009.623806211244
  C      -2.227186     -0.855730     -0.176245
  H      -3.098965     -0.292173     -0.488504
  H      -1.170976     -0.438471     -0.984345
  H      -2.301635     -1.931631     -0.284819
  N      -1.841575     -0.502627      1.126134
  O      -1.159311     -1.299219      1.802427
  O      -2.100887      0.639507      1.555861
  C       2.190518      1.314352     -0.022021
  O       3.049583      2.105620      0.337738
  O       1.571016      1.418092     -1.162175
  C       1.809476      0.149447      0.884457
  Cl      2.423489     -1.405615      0.189385
  H       0.734741      0.043891      0.988124
  H       2.280661      0.266334      1.853361
  H      -0.660961      0.192101     -2.537456
  O      -0.247358     -0.111195     -1.719282
  H       0.749369      0.707317     -1.362638
17
Coordinates from ORCA-job neb E -1009.623873298232
  C      -2.233500     -0.856532     -0.178229
  H      -3.110649     -0.315756     -0.514584
  H      -1.180647     -0.449342     -0.983778
  H      -2.291326     -1.936303     -0.251951
  N      -1.856914     -0.454620      1.112093
  O      -1.168375     -1.221278      1.816608
  O      -2.124662      0.699963      1.499966
  C       2.168337      1.317505      0.001620
  O       2.999344      2.131660      0.376512
  O       1.530110      1.433013     -1.126875
  C       1.845110      0.112440      0.877054
  Cl      2.505266     -1.398355      0.127125
  H       0.777575     -0.039412      0.994651
  H       2.326700      0.218492      1.842084
  H      -0.662935      0.181037     -2.533348
  O      -0.248774     -0.127033     -1.717433
  H       0.725339      0.704521     -1.341515
17
Coordinates from ORCA-job neb E -1009.623957658861
  C      -2.239749     -0.856924     -0.176017
  H      -3.119612     -0.336380     -0.535903
  H      -1.183774     -0.460427     -0.987066
  H      -2.281228     -1.938777     -0.216544
  N      -1.869577     -0.408079      1.099285
  O      -1.174901     -1.145019      1.830455
  O      -2.148132      0.756127      1.448126
  C       2.143458      1.320798      0.027504
  O       2.950517      2.151877      0.417760
  O       1.488887      1.447421     -1.090350
  C       1.875519      0.078222      0.867629
  Cl      2.575820     -1.385245      0.060679
  H       0.815670     -0.116376      0.996684
  H       2.368166      0.171194      1.828456
  H      -0.659908      0.168026     -2.531890
  O      -0.246303     -0.147446     -1.718431
  H       0.705147      0.701010     -1.320379
17
Coordinates from ORCA-job neb E -1009.624050848473
  C      -2.244273     -0.854747     -0.173682
  H      -3.125943     -0.350720     -0.552181
  H      -1.184989     -0.471904     -0.991500
  H      -2.274712     -1.937631     -0.183047
  N      -1.877806     -0.365323      1.086965
  O      -1.177280     -1.075801      1.839675
  O      -2.165287      0.806030      1.401742
  C       2.118789      1.321279      0.051735
  O       2.902081      2.167362      0.458204
  O       1.447064      1.458724     -1.054454
  C       1.901656      0.047334      0.858268
  Cl      2.643584     -1.367907      0.002974
  H       0.850048     -0.187986      0.993194
  H       2.401956      0.130208      1.816115
  H      -0.656611      0.156970     -2.530905
  O      -0.243122     -0.170358     -1.721748
  H       0.684844      0.694471     -1.301355
17
Coordinates from ORCA-job neb E -1009.624137730244
  C      -2.237806     -0.851847     -0.169954
  H      -3.123643     -0.360830     -0.555958
  H      -1.179338     -0.482465     -0.999797
  H      -2.261175     -1.934935     -0.153133
  N      -1.867044     -0.331474      1.077158
  O      -1.154920     -1.019820      1.840150
  O      -2.162264      0.843600      1.368503
  C       2.091899      1.318850      0.072399
  O       2.860875      2.171522      0.492582
  O       1.410091      1.466167     -1.025963
  C       1.905042      0.024473      0.852991
  Cl      2.672298     -1.355859     -0.036975
  H       0.858667     -0.235101      0.989415
  H       2.410154      0.097238      1.809194
  H      -0.653677      0.155207     -2.534203
  O      -0.236986     -0.191350     -1.734300
  H       0.667829      0.686623     -1.292107
17
Coordinates from ORCA-job neb E -1009.624218709363
  C      -2.245500     -0.842410     -0.174066
  H      -3.126681     -0.360247     -0.581039
  H      -1.178308     -0.499936     -1.002833
  H      -2.271175     -1.924418     -0.124483
  N      -1.884252     -0.287796      1.061312
  O      -1.183462     -0.958193      1.850682
  O      -2.182433      0.893799      1.319429
  C       2.061261      1.318752      0.098842
  O       2.806274      2.189176      0.526389
  O       1.345990      1.471651     -0.976618
  C       1.948140     -0.005001      0.843181
  Cl      2.755987     -1.323442     -0.103935
  H       0.916915     -0.312743      0.994871
  H       2.472144      0.061504      1.789609
  H      -0.642508      0.144508     -2.523419
  O      -0.229593     -0.230701     -1.734371
  H       0.637200      0.665497     -1.263551
17
Coordinates from ORCA-job neb E -1009.624278250217
  C      -2.227739     -0.837227     -0.164030
  H      -3.117357     -0.377992     -0.579112
  H      -1.165431     -0.515226     -1.013272
  H      -2.242290     -1.916953     -0.075624
  N      -1.860729     -0.235618      1.048201
  O      -1.134186     -0.866194      1.847262
  O      -2.165228      0.952372      1.265519
  C       2.013915      1.310633      0.131915
  O       2.733822      2.188561      0.587104
  O       1.284585      1.478918     -0.930966
  C       1.943065     -0.040494      0.831322
  Cl      2.789554     -1.299954     -0.162108
  H       0.921206     -0.383563      0.973655
  H       2.467448      0.009321      1.778663
  H      -0.631648      0.140240     -2.532196
  O      -0.218014     -0.259178     -1.754782
  H       0.609027      0.652355     -1.251551
17
Coordinates from ORCA-job neb E -1009.624341194544
  C      -2.230866     -0.819519     -0.152580
  H      -3.117227     -0.394226     -0.607591
  H      -1.156144     -0.538346     -1.018720
  H      -2.230959     -1.891671     -0.001071
  N      -1.877911     -0.138465      1.018204
  O      -1.163127     -0.713780      1.869363
  O      -2.205410      1.055242      1.164031
  C       1.944436      1.294128      0.193397
  O       2.609253      2.194906      0.686227
  O       1.174469      1.473086     -0.838732
  C       2.005737     -0.103442      0.796694
  Cl      2.942069     -1.211568     -0.293437
  H       1.019924     -0.542632      0.927571
  H       2.541943     -0.073188      1.738195
  H      -0.600614      0.104642     -2.530966
  O      -0.211972     -0.315277     -1.751465
  H       0.556399      0.620111     -1.199119
17
Coordinates from ORCA-job neb E -1009.624364846458
  C      -2.214276     -0.810250     -0.137426
  H      -3.109702     -0.419601     -0.606281
  H      -1.148890     -0.557177     -1.015696
  H      -2.202635     -1.873820      0.068844
  N      -1.865051     -0.067063      0.997748
  O      -1.135707     -0.588775      1.870298
  O      -2.201631      1.129804      1.082186
  C       1.888138      1.275613      0.238678
  O       2.509174      2.180236      0.779806
  O       1.102827      1.470105     -0.777821
  C       2.017566     -0.148405      0.765970
  Cl      3.026049     -1.140570     -0.370937
  H       1.054686     -0.645030      0.856356
  H       2.540302     -0.143405      1.715511
  H      -0.580108      0.080722     -2.536457
  O      -0.200916     -0.344542     -1.754715
  H       0.520174      0.602159     -1.176063
17
Coordinates from ORCA-job neb E -1009.624503870630
  C      -2.198098     -0.819672     -0.128032
  H      -3.101924     -0.443039     -0.592410
  H      -1.141595     -0.551420     -1.011515
  H      -2.171318     -1.882773      0.079502
  N      -1.856609     -0.071220      1.006731
  O      -1.118445     -0.581632      1.877632
  O      -2.207261      1.121937      1.089229
  C       1.896293      1.278665      0.232519
  O       2.528294      2.169858      0.782804
  O       1.128188      1.487472     -0.794261
  C       1.986496     -0.148292      0.760143
  Cl      2.997778     -1.157354     -0.358318
  H       1.012445     -0.625076      0.826725
  H       2.487553     -0.156060      1.721245
  H      -0.579713      0.075936     -2.547657
  O      -0.196261     -0.322975     -1.754424
  H       0.534176      0.625645     -1.189910
17
Coordinates from ORCA-job neb E -1009.624586235987
  C      -2.209339     -0.821273     -0.122885
  H      -3.109855     -0.449513     -0.597259
  H      -1.146186     -0.545561     -1.001421
  H      -2.178130     -1.884114      0.083759
  N      -1.885333     -0.071441      1.015602
  O      -1.157002     -0.577973      1.896504
  O      -2.240710      1.121215      1.091923
  C       1.911056      1.279647      0.228996
  O       2.544837      2.165962      0.784290
  O       1.149352      1.495922     -0.802176
  C       1.999970     -0.151570      0.746542
  Cl      3.042657     -1.142144     -0.358799
  H       1.028916     -0.635875      0.787379
  H       2.479805     -0.164644      1.718323
  H      -0.576110      0.052295     -2.547200
  O      -0.198518     -0.311871     -1.735332
  H       0.544589      0.640937     -1.188246
17
Coordinates from ORCA-job neb E -1009.624612668681
  C      -2.188289     -0.826690     -0.111013
  H      -3.097652     -0.466383     -0.578017
  H      -1.133702     -0.536743     -0.999158
  H      -2.143715     -1.889730      0.094907
  N      -1.870070     -0.075387      1.029157
  O      -1.137638     -0.575337      1.909633
  O      -2.247403      1.110366      1.112508
  C       1.916378      1.280889      0.219564
  O       2.562181      2.151523      0.785039
  O       1.177566      1.513684     -0.825185
  C       1.960334     -0.152727      0.737013
  Cl      3.030231     -1.153578     -0.331193
  H       0.981119     -0.621937      0.735436
  H       2.399476     -0.176921      1.727690
  H      -0.576191      0.041264     -2.560288
  O      -0.193348     -0.290315     -1.737028
  H       0.560723      0.668021     -1.209065
17
Coordinates from ORCA-job neb E -1009.624629253872
  C      -2.193091     -0.825223     -0.109045
  H      -3.100143     -0.471137     -0.585156
  H      -1.136035     -0.537380     -0.985838
  H      -2.150601     -1.886547      0.105894
  N      -1.892278     -0.066469      1.032452
  O      -1.162522     -0.556224      1.919874
  O      -2.268069      1.120453      1.099958
  C       1.917406      1.279372      0.223572
  O       2.563046      2.145832      0.795323
  O       1.174662      1.520830     -0.816750
  C       1.972757     -0.161007      0.722386
  Cl      3.070711     -1.129088     -0.347539
  H       1.001584     -0.644638      0.701477
  H       2.399611     -0.193637      1.718122
  H      -0.566216      0.018958     -2.553159
  O      -0.189397     -0.289526     -1.718659
  H       0.558572      0.675433     -1.202914
17
Coordinates from ORCA-job neb E -1009.624643459949
  C      -2.188271     -0.824744     -0.108909
  H      -3.096622     -0.470047     -0.582049
  H      -1.131852     -0.539165     -0.992711
  H      -2.144355     -1.885898      0.106229
  N      -1.879878     -0.064813      1.029099
  O      -1.148431     -0.555377      1.915124
  O      -2.258366      1.121218      1.100059
  C       1.911388      1.278604      0.225737
  O       2.555557      2.146527      0.797018
  O       1.167492      1.518374     -0.814057
  C       1.966418     -0.160575      0.727259
  Cl      3.052952     -1.134998     -0.348758
  H       0.993172     -0.640899      0.715209
  H       2.401163     -0.192042      1.719647
  H      -0.567857      0.026827     -2.557002
  O      -0.188666     -0.294293     -1.728131
  H       0.556155      0.671302     -1.203764
17
Coordinates from ORCA-job neb E -1009.624652076988
  C      -2.185073     -0.823223     -0.110084
  H      -3.093953     -0.469481     -0.583033
  H      -1.130257     -0.542521     -0.993950
  H      -2.142834     -1.883603      0.109778
  N      -1.874858     -0.059287      1.025119
  O      -1.142072     -0.547128      1.911444
  O      -2.252194      1.127127      1.092160
  C       1.903497      1.276959      0.230711
  O       2.543834      2.146531      0.803915
  O       1.156399      1.516385     -0.806729
  C       1.966968     -0.163264      0.728423
  Cl      3.047748     -1.132294     -0.358717
  H       0.995158     -0.646634      0.724154
  H       2.410690     -0.195321      1.716812
  H      -0.567193      0.029217     -2.556495
  O      -0.186507     -0.300187     -1.731505
  H       0.550647      0.666725     -1.202003
17
Coordinates from ORCA-job neb E -1009.624656714478
  C      -2.182915     -0.821989     -0.108463
  H      -3.092056     -0.470023     -0.582122
  H      -1.128011     -0.543894     -0.994755
  H      -2.140103     -1.881520      0.114730
  N      -1.872537     -0.054397      1.024179
  O      -1.139163     -0.539141      1.911692
  O      -2.251109      1.131833      1.088118
  C       1.898447      1.275346      0.233931
  O       2.535586      2.144761      0.810898
  O       1.150892      1.516666     -0.802857
  C       1.966217     -0.166441      0.726345
  Cl      3.051578     -1.127417     -0.363504
  H       0.996227     -0.653246      0.719668
  H       2.409458     -0.200461      1.714867
  H      -0.566162      0.026778     -2.557764
  O      -0.184869     -0.303347     -1.733330
  H       0.548519      0.666491     -1.201631
17
Coordinates from ORCA-job neb E -1009.624659440047
  C      -2.181854     -0.821573     -0.107602
  H      -3.091142     -0.470906     -0.581987
  H      -1.126997     -0.544073     -0.994187
  H      -2.138481     -1.880796      0.117130
  N      -1.872682     -0.052278      1.024276
  O      -1.139355     -0.535213      1.912755
  O      -2.252704      1.133578      1.086690
  C       1.896947      1.274736      0.235080
  O       2.533459      2.143446      0.813742
  O       1.149682      1.517564     -0.801654
  C       1.965825     -0.167986      0.724606
  Cl      3.054513     -1.124868     -0.365533
  H       0.996648     -0.656302      0.715267
  H       2.407497     -0.203373      1.713785
  H      -0.565501      0.024167     -2.558043
  O      -0.184071     -0.303801     -1.732807
  H       0.548216      0.667677     -1.201519
17
Coordinates from ORCA-job neb E -1009.624661344769
  C      -2.180913     -0.821186     -0.107119
  H      -3.090375     -0.471276     -0.581760
  H      -1.126399     -0.544377     -0.993676
  H      -2.137514     -1.880179      0.118811
  N      -1.872324     -0.050765      1.024278
  O      -1.138797     -0.532536      1.913151
  O      -2.252934      1.134933      1.085571
  C       1.895606      1.274264      0.235917
  O       2.531332      2.142567      0.816025
  O       1.148514      1.518147     -0.800742
  C       1.965358     -0.169099      0.723475
  Cl      3.056516     -1.123091     -0.366749
  H       0.996818     -0.658579      0.712298
  H       2.405933     -0.205330      1.713111
  H      -0.565234      0.022422     -2.558235
  O      -0.183393     -0.304299     -1.732699
  H       0.547805      0.668384     -1.201658
