7
	Energy:      -7.4282900
C         -2.37934        1.11884       -0.14026
H         -1.30390        1.07106       -0.28009
H         -2.83535        0.25498       -0.61325
H         -2.76330        2.02365       -0.60108
H         -2.62002        1.12043        0.91653
O          1.14376        1.28460        0.23413
H          0.73200        1.50593        1.08036
