10
Coordinates from ORCA-job neb_MEP_ALL E -321.457589063451
  C      -0.492985     -0.016740     -0.036904
  H      -0.351198     -0.918312     -0.623491
  H      -0.013209      0.828561     -0.527500
  H      -0.150189     -0.123531      0.984974
  N      -1.954826      0.285008     -0.009247
  O      -2.439353      0.696629      1.032859
  O      -2.584724      0.123488     -1.042415
  H       2.636351     -0.058021     -0.677494
  O       2.765957     -0.672182      0.055818
  H       2.584177     -0.144901      0.843399
10
Coordinates from ORCA-job neb_MEP_ALL E -321.457202398779
  C      -0.493325      0.024521     -0.117029
  H      -0.379315     -0.811507     -0.795253
  H      -0.065836      0.934661     -0.546926
  H      -0.084876     -0.159650      0.862832
  N      -1.946863      0.260995      0.023190
  O      -2.373998      0.671251      1.100354
  O      -2.659848      0.040551     -0.948943
  H       2.702788     -0.235798     -0.634284
  O       2.733699     -0.703511      0.201986
  H       2.567574     -0.021514      0.854072
10
Coordinates from ORCA-job neb_MEP_ALL E -321.456681779960
  C      -0.495959      0.057343     -0.177275
  H      -0.401917     -0.720513     -0.923274
  H      -0.106797      1.011985     -0.551494
  H      -0.038545     -0.188253      0.763606
  N      -1.940557      0.241013      0.046270
  O      -2.322182      0.644185      1.148593
  O      -2.707836     -0.019081     -0.874902
  H       2.755784     -0.390587     -0.583118
  O       2.702452     -0.712880      0.316148
  H       2.555556      0.076788      0.835447
10
Coordinates from ORCA-job neb_MEP_ALL E -321.456377868219
  C      -0.500904      0.090952     -0.233746
  H      -0.426716     -0.626348     -1.040532
  H      -0.146272      1.081922     -0.547294
  H       0.003150     -0.213650      0.664231
  N      -1.934543      0.220663      0.067557
  O      -2.270139      0.612285      1.191492
  O      -2.744369     -0.075090     -0.804839
  H       2.805117     -0.547896     -0.511443
  O       2.668563     -0.708841      0.422996
  H       2.546113      0.166003      0.791578
10
Coordinates from ORCA-job neb_MEP_ALL E -321.456355182488
  C      -0.509089      0.130045     -0.293579
  H      -0.458968     -0.517123     -1.159743
  H      -0.189822      1.152305     -0.535889
  H       0.046209     -0.235694      0.550742
  N      -1.926388      0.196625      0.090677
  O      -2.210492      0.573634      1.233795
  O      -2.773141     -0.137398     -0.730877
  H       2.852236     -0.717381     -0.402416
  O       2.629244     -0.689602      0.529771
  H       2.540211      0.244589      0.717518
10
Coordinates from ORCA-job neb_MEP_ALL E -321.456618392300
  C      -0.519290      0.168536     -0.348917
  H      -0.495367     -0.411755     -1.262067
  H      -0.231046      1.211624     -0.523367
  H       0.085057     -0.248756      0.438866
  N      -1.917130      0.172693      0.112378
  O      -2.150768      0.537536      1.268482
  O      -2.790285     -0.198779     -0.662591
  H       2.885328     -0.859445     -0.275345
  O       2.593898     -0.663512      0.616318
  H       2.539603      0.291857      0.636243
10
Coordinates from ORCA-job neb_MEP_ALL E -321.457064838302
  C      -0.532373      0.210094     -0.407580
  H      -0.540282     -0.299766     -1.361886
  H      -0.274881      1.267403     -0.511907
  H       0.124494     -0.254581      0.314436
  N      -1.905384      0.145903      0.135915
  O      -2.082231      0.501705      1.299348
  O      -2.799952     -0.266319     -0.589070
  H       2.908662     -0.986108     -0.126267
  O       2.559221     -0.633503      0.695283
  H       2.542727      0.315171      0.551727
10
Coordinates from ORCA-job neb_MEP_ALL E -321.457409018568
  C      -0.551112      0.263396     -0.481857
  H      -0.604088     -0.159684     -1.478283
  H      -0.330972      1.329019     -0.503444
  H       0.169468     -0.251471      0.149748
  N      -1.885659      0.108989      0.165937
  O      -1.987095      0.461743      1.331576
  O      -2.803677     -0.354145     -0.493235
  H       2.924038     -1.113996      0.070141
  O       2.520853     -0.597417      0.778358
  H       2.548243      0.313566      0.461058
10
Coordinates from ORCA-job neb_MEP_ALL E -321.457589063451
  C      -0.492985     -0.016740     -0.036904
  H      -0.351198     -0.918312     -0.623491
  H      -0.013209      0.828561     -0.527500
  H      -0.150189     -0.123531      0.984974
  N      -1.954826      0.285008     -0.009247
  O      -2.439353      0.696629      1.032859
  O      -2.584724      0.123488     -1.042415
  H       2.636351     -0.058021     -0.677494
  O       2.765957     -0.672182      0.055818
  H       2.584177     -0.144901      0.843399
10
Coordinates from ORCA-job neb_MEP_ALL E -321.457044140725
  C      -0.491242      0.029152     -0.127010
  H      -0.378294     -0.796890     -0.816353
  H      -0.074215      0.946137     -0.548461
  H      -0.075458     -0.166051      0.849082
  N      -1.949903      0.259219      0.028072
  O      -2.366348      0.666331      1.102600
  O      -2.670456      0.033721     -0.933324
  H       2.711689     -0.261480     -0.632476
  O       2.729243     -0.705430      0.220410
  H       2.564985     -0.004710      0.857460
10
Coordinates from ORCA-job neb_MEP_ALL E -321.456481097136
  C      -0.492681      0.059560     -0.183156
  H      -0.396717     -0.710430     -0.935223
  H      -0.113521      1.017077     -0.552011
  H      -0.031314     -0.193699      0.756660
  N      -1.945337      0.240989      0.050268
  O      -2.319122      0.639867      1.144095
  O      -2.715998     -0.019853     -0.862048
  H       2.761250     -0.408791     -0.583598
  O       2.699838     -0.711389      0.326014
  H       2.553603      0.086668      0.838999
10
Coordinates from ORCA-job neb_MEP_ALL E -321.456228532396
  C      -0.496890      0.090817     -0.235800
  H      -0.418721     -0.622131     -1.043805
  H      -0.150580      1.081632     -0.547759
  H       0.008300     -0.217809      0.664002
  N      -1.940260      0.222529      0.070391
  O      -2.271560      0.609640      1.182379
  O      -2.750664     -0.071102     -0.795983
  H       2.806765     -0.556226     -0.515046
  O       2.668979     -0.706433      0.423627
  H       2.544631      0.169083      0.797993
10
Coordinates from ORCA-job neb_MEP_ALL E -321.456219785702
  C      -0.504980      0.129339     -0.294409
  H      -0.450579     -0.514584     -1.160515
  H      -0.193024      1.150676     -0.536134
  H       0.050991     -0.239569      0.552311
  N      -1.932266      0.199162      0.093122
  O      -2.213638      0.571431      1.223801
  O      -2.778525     -0.132043     -0.723745
  H       2.852640     -0.722918     -0.407087
  O       2.630902     -0.688450      0.527418
  H       2.538479      0.246955      0.725238
10
Coordinates from ORCA-job neb_MEP_ALL E -321.456483221628
  C      -0.514961      0.165172     -0.345140
  H      -0.485419     -0.417515     -1.254791
  H      -0.230325      1.205745     -0.524158
  H       0.086734     -0.251174      0.448740
  N      -1.923025      0.177148      0.112866
  O      -2.158894      0.538116      1.257322
  O      -2.793249     -0.189151     -0.662380
  H       2.883160     -0.853740     -0.290149
  O       2.598113     -0.666301      0.608099
  H       2.537865      0.291699      0.649590
10
Coordinates from ORCA-job neb_MEP_ALL E -321.456992583486
  C      -0.528315      0.204791     -0.400067
  H      -0.529573     -0.312239     -1.349640
  H      -0.270363      1.259432     -0.512519
  H       0.122918     -0.256255      0.331357
  N      -1.910367      0.151572      0.134219
  O      -2.094293      0.504355      1.290060
  O      -2.801472     -0.253694     -0.596030
  H       2.906007     -0.974189     -0.149791
  O       2.564313     -0.639218      0.684781
  H       2.541145      0.315445      0.567628
10
Coordinates from ORCA-job neb_MEP_ALL E -321.457409018568
  C      -0.550833      0.264203     -0.481735
  H      -0.603541     -0.157557     -1.478736
  H      -0.330343      1.329784     -0.501840
  H       0.169327     -0.251721      0.149488
  N      -1.885691      0.109377      0.165319
  O      -1.987487      0.460640      1.331379
  O      -2.803591     -0.352601     -0.494829
  H       2.923654     -1.115027      0.069865
  O       2.520347     -0.599244      0.778594
  H       2.548157      0.312146      0.462496
10
Coordinates from ORCA-job neb_MEP_ALL E -321.457589063451
  C      -0.492985     -0.016740     -0.036904
  H      -0.351198     -0.918312     -0.623491
  H      -0.013209      0.828561     -0.527500
  H      -0.150189     -0.123531      0.984974
  N      -1.954826      0.285008     -0.009247
  O      -2.439353      0.696629      1.032859
  O      -2.584724      0.123488     -1.042415
  H       2.636351     -0.058021     -0.677494
  O       2.765957     -0.672182      0.055818
  H       2.584177     -0.144901      0.843399
10
Coordinates from ORCA-job neb_MEP_ALL E -321.457245512005
  C      -0.489612      0.040502     -0.146768
  H      -0.374562     -0.771449     -0.856064
  H      -0.089532      0.966636     -0.550879
  H      -0.057296     -0.178529      0.824994
  N      -1.956430      0.253215      0.035192
  O      -2.352146      0.660900      1.115123
  O      -2.689821      0.020229     -0.910549
  H       2.727878     -0.308573     -0.627920
  O       2.721432     -0.709947      0.254325
  H       2.560088      0.027017      0.862546
10
Coordinates from ORCA-job neb_MEP_ALL E -321.456941271352
  C      -0.490669      0.069063     -0.196731
  H      -0.386286     -0.691995     -0.961670
  H      -0.126337      1.027341     -0.552174
  H      -0.016179     -0.204932      0.742580
  N      -1.954918      0.235909      0.054779
  O      -2.310772      0.637010      1.150999
  O      -2.731545     -0.025000     -0.846838
  H       2.772063     -0.444424     -0.580878
  O       2.694889     -0.711562      0.347367
  H       2.549753      0.108590      0.842566
10
Coordinates from ORCA-job neb_MEP_ALL E -321.456775775508
  C      -0.494252      0.097235     -0.242463
  H      -0.403847     -0.613488     -1.055781
  H      -0.159259      1.082238     -0.547517
  H       0.019677     -0.226565      0.660736
  N      -1.951745      0.219238      0.072381
  O      -2.269663      0.610652      1.183533
  O      -2.762713     -0.068767     -0.789338
  H       2.811055     -0.574087     -0.517763
  O       2.668758     -0.705372      0.431279
  H       2.541989      0.178916      0.804933
10
Coordinates from ORCA-job neb_MEP_ALL E -321.456766086790
  C      -0.501586      0.133237     -0.296348
  H      -0.433959     -0.512359     -1.164161
  H      -0.198302      1.146309     -0.536002
  H       0.060033     -0.247013      0.555876
  N      -1.944157      0.197256      0.093588
  O      -2.216406      0.574779      1.221787
  O      -2.788542     -0.125112     -0.722838
  H       2.853320     -0.729871     -0.415917
  O       2.633656     -0.688891      0.527121
  H       2.535942      0.251664      0.736894
10
Coordinates from ORCA-job neb_MEP_ALL E -321.456905806988
  C      -0.510064      0.163042     -0.338069
  H      -0.465646     -0.430584     -1.243241
  H      -0.228431      1.193640     -0.525496
  H       0.089910     -0.255985      0.468081
  N      -1.935022      0.179081      0.110198
  O      -2.171249      0.545943      1.250293
  O      -2.799517     -0.173597     -0.672512
  H       2.879163     -0.840079     -0.318424
  O       2.605542     -0.672386      0.596224
  H       2.535313      0.290925      0.672947
10
Coordinates from ORCA-job neb_MEP_ALL E -321.457150487977
  C      -0.522518      0.198834     -0.388058
  H      -0.509733     -0.333170     -1.331636
  H      -0.263287      1.245750     -0.513487
  H       0.121620     -0.260042      0.359497
  N      -1.921171      0.156236      0.129799
  O      -2.112507      0.512607      1.281823
  O      -2.805423     -0.233754     -0.613077
  H       2.901889     -0.954255     -0.188961
  O       2.572494     -0.648886      0.669668
  H       2.538636      0.316679      0.594431
10
Coordinates from ORCA-job neb_MEP_ALL E -321.457409018568
  C      -0.550259      0.265587     -0.481635
  H      -0.602160     -0.153742     -1.479710
  H      -0.329327      1.331134     -0.498948
  H       0.169081     -0.252151      0.149044
  N      -1.885811      0.109726      0.163745
  O      -1.988606      0.458210      1.330558
  O      -2.803249     -0.350292     -0.498417
  H       2.923147     -1.116360      0.070020
  O       2.519352     -0.602129      0.779605
  H       2.547831      0.310017      0.465737
10
Coordinates from ORCA-job neb_MEP_ALL E -321.457589063451
  C      -0.492985     -0.016740     -0.036904
  H      -0.351198     -0.918312     -0.623491
  H      -0.013209      0.828561     -0.527500
  H      -0.150189     -0.123531      0.984974
  N      -1.954826      0.285008     -0.009247
  O      -2.439353      0.696629      1.032859
  O      -2.584724      0.123488     -1.042415
  H       2.636351     -0.058021     -0.677494
  O       2.765957     -0.672182      0.055818
  H       2.584177     -0.144901      0.843399
10
Coordinates from ORCA-job neb_MEP_ALL E -321.457285217832
  C      -0.491538      0.040536     -0.151188
  H      -0.370733     -0.762387     -0.869611
  H      -0.094350      0.975977     -0.552877
  H      -0.051855     -0.182170      0.813435
  N      -1.961252      0.251817      0.041536
  O      -2.344482      0.660580      1.120661
  O      -2.696681      0.014401     -0.906750
  H       2.733065     -0.327205     -0.619523
  O       2.718572     -0.706539      0.265181
  H       2.559255      0.034991      0.859135
10
Coordinates from ORCA-job neb_MEP_ALL E -321.457083307573
  C      -0.493937      0.067072     -0.200463
  H      -0.381108     -0.682424     -0.974283
  H      -0.131073      1.037075     -0.553665
  H      -0.011138     -0.207920      0.729854
  N      -1.962277      0.234860      0.063885
  O      -2.301011      0.637131      1.155910
  O      -2.737548     -0.031003     -0.845718
  H       2.776362     -0.462619     -0.569899
  O       2.692520     -0.708365      0.358476
  H       2.549210      0.116194      0.835903
10
Coordinates from ORCA-job neb_MEP_ALL E -321.456964490869
  C      -0.498204      0.093490     -0.245075
  H      -0.398360     -0.605311     -1.065537
  H      -0.163234      1.090683     -0.548750
  H       0.023572     -0.228136      0.648951
  N      -1.959468      0.218056      0.082584
  O      -2.259946      0.612212      1.187220
  O      -2.767339     -0.074083     -0.790933
  H       2.813457     -0.588211     -0.505508
  O       2.667448     -0.702671      0.439784
  H       2.542075      0.183973      0.797264
10
Coordinates from ORCA-job neb_MEP_ALL E -321.456942413618
  C      -0.504549      0.126042     -0.294778
  H      -0.426285     -0.513052     -1.164555
  H      -0.199006      1.148851     -0.538180
  H       0.060487     -0.246476      0.553023
  N      -1.952072      0.197459      0.102589
  O      -2.211430      0.580238      1.221269
  O      -2.790958     -0.125434     -0.729960
  H       2.851328     -0.729834     -0.411279
  O       2.635741     -0.687387      0.526690
  H       2.536743      0.249594      0.735181
10
Coordinates from ORCA-job neb_MEP_ALL E -321.457053690680
  C      -0.511490      0.153942     -0.333364
  H      -0.456205     -0.439112     -1.236793
  H      -0.226345      1.191684     -0.528864
  H       0.088151     -0.254690      0.473844
  N      -1.942206      0.180440      0.117207
  O      -2.171609      0.554288      1.246666
  O      -2.801213     -0.169401     -0.683168
  H       2.874715     -0.830427     -0.323095
  O       2.610140     -0.672043      0.589426
  H       2.536062      0.285319      0.678141
10
Coordinates from ORCA-job neb_MEP_ALL E -321.457216784217
  C      -0.522752      0.191469     -0.384154
  H      -0.501962     -0.341706     -1.326273
  H      -0.261171      1.243642     -0.516931
  H       0.120453     -0.259460      0.365847
  N      -1.925187      0.157462      0.134290
  O      -2.114958      0.520435      1.278793
  O      -2.808281     -0.229609     -0.621448
  H       2.898341     -0.947331     -0.193714
  O       2.576478     -0.647661      0.663370
  H       2.539039      0.312760      0.600220
10
Coordinates from ORCA-job neb_MEP_ALL E -321.457409018568
  C      -0.550105      0.264769     -0.482263
  H      -0.602041     -0.156653     -1.479458
  H      -0.328782      1.330199     -0.501805
  H       0.168972     -0.251897      0.149598
  N      -1.885791      0.110758      0.163288
  O      -1.988597      0.461747      1.329352
  O      -2.803320     -0.350328     -0.498012
  H       2.922733     -1.117275      0.072731
  O       2.519041     -0.601397      0.781181
  H       2.547891      0.310076      0.465387
10
Coordinates from ORCA-job neb_MEP_ALL E -321.457589063451
  C      -0.492985     -0.016740     -0.036904
  H      -0.351198     -0.918312     -0.623491
  H      -0.013209      0.828561     -0.527500
  H      -0.150189     -0.123531      0.984974
  N      -1.954826      0.285008     -0.009247
  O      -2.439353      0.696629      1.032859
  O      -2.584724      0.123488     -1.042415
  H       2.636351     -0.058021     -0.677494
  O       2.765957     -0.672182      0.055818
  H       2.584177     -0.144901      0.843399
10
Coordinates from ORCA-job neb_MEP_ALL E -321.457289230360
  C      -0.492707      0.042014     -0.153756
  H      -0.369118     -0.759365     -0.874121
  H      -0.096678      0.978038     -0.552738
  H      -0.050015     -0.183631      0.809779
  N      -1.962022      0.249799      0.040680
  O      -2.342708      0.661222      1.124264
  O      -2.698246      0.013073     -0.904142
  H       2.734638     -0.332114     -0.618065
  O       2.718162     -0.708149      0.269719
  H       2.558695      0.039112      0.858379
10
Coordinates from ORCA-job neb_MEP_ALL E -321.457085549114
  C      -0.495933      0.069292     -0.203431
  H      -0.379508     -0.678531     -0.979750
  H      -0.133960      1.039379     -0.552890
  H      -0.009085     -0.209457      0.724934
  N      -1.962939      0.231651      0.061758
  O      -2.298626      0.638099      1.161466
  O      -2.738743     -0.032643     -0.842874
  H       2.778117     -0.468861     -0.566349
  O       2.691894     -0.709980      0.364006
  H       2.548783      0.121051      0.833130
10
Coordinates from ORCA-job neb_MEP_ALL E -321.456974521539
  C      -0.500599      0.095895     -0.247697
  H      -0.396987     -0.601520     -1.070672
  H      -0.166109      1.092480     -0.547662
  H       0.025362     -0.229296      0.643932
  N      -1.960172      0.214284      0.079889
  O      -2.257423      0.613514      1.193131
  O      -2.767703     -0.075584     -0.788443
  H       2.814860     -0.593673     -0.501363
  O       2.666718     -0.703837      0.445590
  H       2.542051      0.187737      0.793296
10
Coordinates from ORCA-job neb_MEP_ALL E -321.456944193040
  C      -0.506617      0.126819     -0.294791
  H      -0.423781     -0.513539     -1.165073
  H      -0.200183      1.147697     -0.537587
  H       0.060544     -0.246653      0.552352
  N      -1.953033      0.194422      0.098851
  O      -2.211152      0.583195      1.225566
  O      -2.790154     -0.124442     -0.730397
  H       2.850818     -0.728437     -0.411395
  O       2.636349     -0.688553      0.528605
  H       2.537210      0.249492      0.733870
10
Coordinates from ORCA-job neb_MEP_ALL E -321.457040039280
  C      -0.512925      0.153797     -0.332192
  H      -0.453220     -0.441471     -1.235614
  H      -0.226704      1.189664     -0.528762
  H       0.087706     -0.254679      0.475311
  N      -1.943430      0.177955      0.113473
  O      -2.172551      0.557701      1.249768
  O      -2.800348     -0.167271     -0.684644
  H       2.873750     -0.826923     -0.325998
  O       2.611207     -0.673418      0.589795
  H       2.536515      0.284645      0.678863
10
Coordinates from ORCA-job neb_MEP_ALL E -321.457216048529
  C      -0.523404      0.191044     -0.382994
  H      -0.499377     -0.343778     -1.325197
  H      -0.261320      1.242017     -0.517062
  H       0.120278     -0.259633      0.367453
  N      -1.926814      0.155639      0.131786
  O      -2.116041      0.522921      1.280296
  O      -2.807698     -0.227467     -0.622450
  H       2.897754     -0.945017     -0.196706
  O       2.577232     -0.648745      0.663494
  H       2.539391      0.313018      0.601381
10
Coordinates from ORCA-job neb_MEP_ALL E -321.457409018568
  C      -0.550081      0.264701     -0.482328
  H      -0.601965     -0.156859     -1.479469
  H      -0.328759      1.330131     -0.502006
  H       0.168965     -0.251876      0.149642
  N      -1.885800      0.110777      0.163176
  O      -1.988666      0.461928      1.329188
  O      -2.803294     -0.350403     -0.498107
  H       2.922732     -1.117261      0.073035
  O       2.519003     -0.601285      0.781394
  H       2.547867      0.310146      0.465474
10
Coordinates from ORCA-job neb_MEP_ALL E -321.457589063451
  C      -0.492985     -0.016740     -0.036904
  H      -0.351198     -0.918312     -0.623491
  H      -0.013209      0.828561     -0.527500
  H      -0.150189     -0.123531      0.984974
  N      -1.954826      0.285008     -0.009247
  O      -2.439353      0.696629      1.032859
  O      -2.584724      0.123488     -1.042415
  H       2.636351     -0.058021     -0.677494
  O       2.765957     -0.672182      0.055818
  H       2.584177     -0.144901      0.843399
10
Coordinates from ORCA-job neb_MEP_ALL E -321.457336037341
  C      -0.494343      0.042647     -0.154558
  H      -0.367678     -0.759261     -0.873925
  H      -0.097766      0.977204     -0.551828
  H      -0.050553     -0.183655      0.808748
  N      -1.961037      0.248627      0.040158
  O      -2.342475      0.662307      1.125607
  O      -2.697937      0.013401     -0.904386
  H       2.734163     -0.331098     -0.617023
  O       2.718985     -0.710213      0.270560
  H       2.558640      0.040041      0.856646
10
Coordinates from ORCA-job neb_MEP_ALL E -321.457205926560
  C      -0.498596      0.071486     -0.205984
  H      -0.379361     -0.676147     -0.982937
  H      -0.136323      1.040281     -0.551337
  H      -0.008958     -0.209783      0.720705
  N      -1.960811      0.229356      0.061332
  O      -2.296550      0.638627      1.164989
  O      -2.738875     -0.034132     -0.841654
  H       2.778762     -0.471454     -0.562339
  O       2.691913     -0.712562      0.368407
  H       2.548800      0.124329      0.828818
10
Coordinates from ORCA-job neb_MEP_ALL E -321.457139892841
  C      -0.503779      0.098873     -0.250836
  H      -0.397853     -0.597922     -1.075458
  H      -0.169084      1.093968     -0.545717
  H       0.025637     -0.229526      0.638188
  N      -1.957466      0.211402      0.079531
  O      -2.254342      0.613657      1.197436
  O      -2.767441     -0.078010     -0.786493
  H       2.815982     -0.597763     -0.495876
  O       2.665917     -0.706029      0.452106
  H       2.542430      0.191350      0.787119
10
Coordinates from ORCA-job neb_MEP_ALL E -321.457120249964
  C      -0.509566      0.128109     -0.295254
  H      -0.423445     -0.514406     -1.165101
  H      -0.201456      1.146097     -0.536214
  H       0.058953     -0.245866      0.551199
  N      -1.950548      0.192472      0.097422
  O      -2.210308      0.584973      1.228189
  O      -2.788677     -0.124389     -0.731383
  H       2.850021     -0.725284     -0.410520
  O       2.636809     -0.690703      0.531292
  H       2.538215      0.248997      0.730370
10
Coordinates from ORCA-job neb_MEP_ALL E -321.457178590672
  C      -0.515419      0.154983     -0.332798
  H      -0.452946     -0.441508     -1.236529
  H      -0.228261      1.188668     -0.527713
  H       0.086708     -0.254158      0.473585
  N      -1.941372      0.175923      0.112299
  O      -2.171395      0.559180      1.252289
  O      -2.799411     -0.167578     -0.684818
  H       2.873350     -0.825317     -0.324851
  O       2.611214     -0.674734      0.592974
  H       2.537532      0.284542      0.675562
10
Coordinates from ORCA-job neb_MEP_ALL E -321.457279383477
  C      -0.525196      0.192435     -0.384382
  H      -0.499727     -0.341684     -1.327610
  H      -0.263444      1.242180     -0.516391
  H       0.120553     -0.259482      0.363934
  N      -1.925681      0.153491      0.131417
  O      -2.113963      0.523378      1.282240
  O      -2.807326     -0.228730     -0.620714
  H       2.898005     -0.946433     -0.193571
  O       2.576434     -0.648884      0.667329
  H       2.540344      0.313729      0.597749
10
Coordinates from ORCA-job neb_MEP_ALL E -321.457409018568
  C      -0.550138      0.264541     -0.482352
  H      -0.602067     -0.157269     -1.479385
  H      -0.328898      1.329983     -0.502309
  H       0.168995     -0.251827      0.149691
  N      -1.885796      0.110675      0.163294
  O      -1.988599      0.462106      1.329229
  O      -2.803306     -0.350737     -0.497805
  H       2.922821     -1.117024      0.073086
  O       2.519108     -0.600902      0.781349
  H       2.547879      0.310453      0.465202
10
Coordinates from ORCA-job neb_MEP_ALL E -321.457589063451
  C      -0.492985     -0.016740     -0.036904
  H      -0.351198     -0.918312     -0.623491
  H      -0.013209      0.828561     -0.527500
  H      -0.150189     -0.123531      0.984974
  N      -1.954826      0.285008     -0.009247
  O      -2.439353      0.696629      1.032859
  O      -2.584724      0.123488     -1.042415
  H       2.636351     -0.058021     -0.677494
  O       2.765957     -0.672182      0.055818
  H       2.584177     -0.144901      0.843399
10
Coordinates from ORCA-job neb_MEP_ALL E -321.457359308233
  C      -0.496857      0.045298     -0.160671
  H      -0.364143     -0.750880     -0.885334
  H      -0.104478      0.982880     -0.551109
  H      -0.046815     -0.186933      0.798068
  N      -1.960420      0.245499      0.042537
  O      -2.337283      0.662134      1.130366
  O      -2.703463      0.009677     -0.897642
  H       2.738069     -0.344545     -0.611320
  O       2.717969     -0.713306      0.282266
  H       2.557422      0.050177      0.852839
10
Coordinates from ORCA-job neb_MEP_ALL E -321.457243373139
  C      -0.502569      0.075205     -0.213318
  H      -0.376916     -0.665528     -0.996365
  H      -0.144563      1.046783     -0.548942
  H      -0.005368     -0.212773      0.706672
  N      -1.958780      0.225171      0.063721
  O      -2.289516      0.637679      1.170863
  O      -2.743791     -0.038932     -0.833781
  H       2.782973     -0.487876     -0.551633
  O       2.690388     -0.715131      0.383068
  H       2.548140      0.135402      0.819715
10
Coordinates from ORCA-job neb_MEP_ALL E -321.457185717700
  C      -0.508311      0.102250     -0.257163
  H      -0.396140     -0.588446     -1.086942
  H      -0.177087      1.098757     -0.542633
  H       0.028003     -0.231274      0.624996
  N      -1.954632      0.207225      0.081332
  O      -2.247639      0.613198      1.202554
  O      -2.770410     -0.082271     -0.779760
  H       2.818783     -0.610986     -0.483978
  O       2.664624     -0.707689      0.465423
  H       2.542809      0.199236      0.776170
10
Coordinates from ORCA-job neb_MEP_ALL E -321.457171413002
  C      -0.513449      0.127545     -0.295706
  H      -0.419054     -0.515346     -1.165217
  H      -0.205393      1.143595     -0.534254
  H       0.057152     -0.245251      0.548717
  N      -1.948327      0.190631      0.096816
  O      -2.209044      0.588388      1.229175
  O      -2.788624     -0.122804     -0.731536
  H       2.847958     -0.721506     -0.408656
  O       2.639014     -0.693227      0.534741
  H       2.539766      0.247975      0.725921
10
Coordinates from ORCA-job neb_MEP_ALL E -321.457211727144
  C      -0.518309      0.153618     -0.332327
  H      -0.448218     -0.443927     -1.235574
  H      -0.231418      1.185578     -0.526639
  H       0.085162     -0.253594      0.473139
  N      -1.939871      0.174590      0.111544
  O      -2.171361      0.563141      1.252577
  O      -2.799634     -0.165261     -0.685629
  H       2.871031     -0.820461     -0.325990
  O       2.613526     -0.676971      0.595162
  H       2.539092      0.283287      0.673736
10
Coordinates from ORCA-job neb_MEP_ALL E -321.457297069356
  C      -0.526874      0.191247     -0.384184
  H      -0.495837     -0.343010     -1.327483
  H      -0.266155      1.239955     -0.516113
  H       0.120385     -0.259486      0.363235
  N      -1.925170      0.152337      0.131152
  O      -2.114062      0.526465      1.282196
  O      -2.808363     -0.226982     -0.620570
  H       2.896658     -0.944564     -0.194574
  O       2.577590     -0.649871      0.669619
  H       2.541827      0.313909      0.596724
10
Coordinates from ORCA-job neb_MEP_ALL E -321.457409018568
  C      -0.550143      0.264219     -0.482525
  H      -0.602135     -0.158320     -1.479251
  H      -0.328844      1.329638     -0.503273
  H       0.168987     -0.251728      0.149870
  N      -1.885784      0.110900      0.163290
  O      -1.988521      0.463193      1.328975
  O      -2.803347     -0.350947     -0.497436
  H       2.922763     -1.117137      0.073787
  O       2.519107     -0.600472      0.781691
  H       2.547916      0.310654      0.464873
10
Coordinates from ORCA-job neb_MEP_ALL E -321.457589063451
  C      -0.492985     -0.016740     -0.036904
  H      -0.351198     -0.918312     -0.623491
  H      -0.013209      0.828561     -0.527500
  H      -0.150189     -0.123531      0.984974
  N      -1.954826      0.285008     -0.009247
  O      -2.439353      0.696629      1.032859
  O      -2.584724      0.123488     -1.042415
  H       2.636351     -0.058021     -0.677494
  O       2.765957     -0.672182      0.055818
  H       2.584177     -0.144901      0.843399
10
Coordinates from ORCA-job neb_MEP_ALL E -321.457344331600
  C      -0.496051      0.045178     -0.162005
  H      -0.364048     -0.749313     -0.887415
  H      -0.107004      0.984174     -0.550377
  H      -0.046895     -0.187276      0.796017
  N      -1.960276      0.245593      0.042482
  O      -2.335831      0.661450      1.129272
  O      -2.703998      0.009234     -0.894317
  H       2.738434     -0.347988     -0.608308
  O       2.718298     -0.712750      0.283987
  H       2.557371      0.051699      0.850664
10
Coordinates from ORCA-job neb_MEP_ALL E -321.457210641764
  C      -0.501022      0.075795     -0.216517
  H      -0.378765     -0.661837     -1.000891
  H      -0.148422      1.049603     -0.547678
  H      -0.005016     -0.213280      0.702339
  N      -1.957948      0.225317      0.064124
  O      -2.286798      0.635650      1.169601
  O      -2.744593     -0.040763     -0.827924
  H       2.784149     -0.494856     -0.546563
  O       2.690301     -0.714350      0.387475
  H       2.548113      0.138721      0.816033
10
Coordinates from ORCA-job neb_MEP_ALL E -321.457144478740
  C      -0.506024      0.101498     -0.258632
  H      -0.397660     -0.588663     -1.087013
  H      -0.179613      1.098911     -0.541587
  H       0.026602     -0.230838      0.624885
  N      -1.953785      0.208810      0.080780
  O      -2.246970      0.612163      1.199406
  O      -2.769758     -0.082179     -0.776154
  H       2.818148     -0.611794     -0.482702
  O       2.665844     -0.707149      0.466247
  H       2.543218      0.199242      0.774768
10
Coordinates from ORCA-job neb_MEP_ALL E -321.457138972684
  C      -0.511370      0.126682     -0.297058
  H      -0.420655     -0.516156     -1.164570
  H      -0.207668      1.143121     -0.533214
  H       0.055634     -0.244798      0.549219
  N      -1.947560      0.192672      0.096103
  O      -2.208438      0.587507      1.225955
  O      -2.787643     -0.122563     -0.728444
  H       2.846986     -0.721049     -0.408296
  O       2.640393     -0.693536      0.535588
  H       2.540321      0.248120      0.724718
10
Coordinates from ORCA-job neb_MEP_ALL E -321.457187381708
  C      -0.516932      0.154041     -0.335207
  H      -0.450550     -0.441597     -1.237976
  H      -0.234820      1.186539     -0.525474
  H       0.085167     -0.253600      0.470151
  N      -1.939037      0.175954      0.111392
  O      -2.168954      0.561468      1.250897
  O      -2.799293     -0.166992     -0.680717
  H       2.870857     -0.824133     -0.321496
  O       2.613732     -0.675587      0.598147
  H       2.539830      0.283908      0.670284
10
Coordinates from ORCA-job neb_MEP_ALL E -321.457291964036
  C      -0.526203      0.191090     -0.385685
  H      -0.496766     -0.342440     -1.328244
  H      -0.268606      1.239655     -0.515665
  H       0.120270     -0.259332      0.361690
  N      -1.924874      0.153524      0.130614
  O      -2.112513      0.526191      1.281076
  O      -2.808087     -0.227780     -0.617422
  H       2.895806     -0.945372     -0.191672
  O       2.578192     -0.648463      0.670559
  H       2.542781      0.312929      0.594750
10
Coordinates from ORCA-job neb_MEP_ALL E -321.457409018568
  C      -0.550215      0.263890     -0.482623
  H      -0.602393     -0.159370     -1.479034
  H      -0.328880      1.329286     -0.504181
  H       0.169003     -0.251625      0.150023
  N      -1.885752      0.111090      0.163531
  O      -1.988278      0.464231      1.328978
  O      -2.803445     -0.351203     -0.496705
  H       2.922734     -1.117193      0.074099
  O       2.519218     -0.600000      0.781697
  H       2.548007      0.310895      0.464214
10
Coordinates from ORCA-job neb_MEP_ALL E -321.457589063451
  C      -0.492985     -0.016740     -0.036904
  H      -0.351198     -0.918312     -0.623491
  H      -0.013209      0.828561     -0.527500
  H      -0.150189     -0.123531      0.984974
  N      -1.954826      0.285008     -0.009247
  O      -2.439353      0.696629      1.032859
  O      -2.584724      0.123488     -1.042415
  H       2.636351     -0.058021     -0.677494
  O       2.765957     -0.672182      0.055818
  H       2.584177     -0.144901      0.843399
10
Coordinates from ORCA-job neb_MEP_ALL E -321.457357472065
  C      -0.495420      0.045335     -0.164060
  H      -0.364322     -0.746561     -0.891860
  H      -0.110257      0.987359     -0.549521
  H      -0.046371     -0.188225      0.792946
  N      -1.958980      0.245749      0.044125
  O      -2.333257      0.660267      1.129045
  O      -2.706455      0.007575     -0.891674
  H       2.739461     -0.353116     -0.606552
  O       2.718650     -0.713811      0.288898
  H       2.556950      0.055428      0.848654
10
Coordinates from ORCA-job neb_MEP_ALL E -321.457248018632
  C      -0.499541      0.075892     -0.218875
  H      -0.380812     -0.659213     -1.005363
  H      -0.151831      1.053160     -0.546365
  H      -0.005014     -0.213931      0.699557
  N      -1.956110      0.226168      0.065818
  O      -2.284015      0.633546      1.168247
  O      -2.746553     -0.042654     -0.824649
  H       2.785042     -0.500315     -0.544708
  O       2.690891     -0.714802      0.392576
  H       2.547943      0.142149      0.813762
10
Coordinates from ORCA-job neb_MEP_ALL E -321.457203972403
  C      -0.503890      0.100486     -0.259520
  H      -0.399681     -0.589081     -1.088010
  H      -0.181919      1.100486     -0.540367
  H       0.025188     -0.230805      0.625474
  N      -1.951940      0.210882      0.081619
  O      -2.245746      0.610706      1.196405
  O      -2.770539     -0.082577     -0.774558
  H       2.817427     -0.612823     -0.482254
  O       2.667616     -0.707047      0.466850
  H       2.543485      0.199772      0.774361
10
Coordinates from ORCA-job neb_MEP_ALL E -321.457198116518
  C      -0.509365      0.125578     -0.297784
  H      -0.422821     -0.517139     -1.164875
  H      -0.209699      1.144131     -0.531919
  H       0.054069     -0.244781      0.550355
  N      -1.945872      0.195163      0.096687
  O      -2.207275      0.586153      1.222778
  O      -2.787998     -0.122780     -0.727213
  H       2.845730     -0.720951     -0.407935
  O       2.642412     -0.693456      0.535623
  H       2.540819      0.248082      0.724282
10
Coordinates from ORCA-job neb_MEP_ALL E -321.457236554139
  C      -0.515828      0.154525     -0.338070
  H      -0.453629     -0.438341     -1.242042
  H      -0.238404      1.189325     -0.523836
  H       0.085413     -0.254074      0.466618
  N      -1.937009      0.177579      0.112791
  O      -2.165502      0.559002      1.249434
  O      -2.800456     -0.169726     -0.676990
  H       2.870747     -0.829205     -0.316350
  O       2.614161     -0.674995      0.601643
  H       2.540507      0.285909      0.666803
10
Coordinates from ORCA-job neb_MEP_ALL E -321.457312094086
  C      -0.525968      0.191426     -0.387976
  H      -0.498729     -0.339639     -1.331335
  H      -0.271747      1.241372     -0.514433
  H       0.120762     -0.259602      0.358283
  N      -1.922980      0.154886      0.132020
  O      -2.109478      0.524587      1.280207
  O      -2.809411     -0.230183     -0.614667
  H       2.895478     -0.948702     -0.187404
  O       2.578206     -0.648013      0.673677
  H       2.543867      0.313869      0.591628
10
Coordinates from ORCA-job neb_MEP_ALL E -321.457409018568
  C      -0.550266      0.263812     -0.482608
  H      -0.602564     -0.159628     -1.478938
  H      -0.328915      1.329201     -0.504385
  H       0.169016     -0.251601      0.150050
  N      -1.885732      0.111150      0.163726
  O      -1.988118      0.464505      1.329122
  O      -2.803508     -0.351247     -0.496322
  H       2.922724     -1.117229      0.073969
  O       2.519297     -0.599900      0.781520
  H       2.548066      0.310937      0.463868
