10
Coordinates from ORCA-job neb E -321.457219835358
  C      -0.509365      0.125578     -0.297784
  H      -0.422821     -0.517139     -1.164875
  H      -0.209699      1.144131     -0.531919
  H       0.054069     -0.244781      0.550355
  N      -1.945872      0.195163      0.096687
  O      -2.207275      0.586153      1.222778
  O      -2.787998     -0.122780     -0.727213
  H       2.845730     -0.720951     -0.407935
  O       2.642412     -0.693456      0.535623
  H       2.540819      0.248082      0.724282
10
Coordinates from ORCA-job neb E -321.457234122999
  C      -0.511843      0.122115     -0.293390
  H      -0.423588     -0.525380     -1.157299
  H      -0.209627      1.139945     -0.532550
  H       0.048494     -0.244360      0.559390
  N      -1.949798      0.195186      0.095280
  O      -2.213678      0.591320      1.219397
  O      -2.789318     -0.116242     -0.734239
  H       2.849466     -0.709989     -0.416278
  O       2.652456     -0.695102      0.528191
  H       2.547436      0.242507      0.731498
10
Coordinates from ORCA-job neb E -321.457246695631
  C      -0.515838      0.125753     -0.298787
  H      -0.430421     -0.515738     -1.168204
  H      -0.216073      1.146638     -0.532181
  H       0.049323     -0.245990      0.549678
  N      -1.952389      0.193600      0.096849
  O      -2.211063      0.588787      1.222916
  O      -2.795041     -0.121418     -0.728666
  H       2.860672     -0.725519     -0.406303
  O       2.656598     -0.694117      0.537655
  H       2.554233      0.248003      0.727042
10
Coordinates from ORCA-job neb E -321.457246605059
  C      -0.524027      0.131938     -0.304998
  H      -0.442843     -0.503998     -1.178964
  H      -0.225001      1.154314     -0.533353
  H       0.044916     -0.244940      0.538869
  N      -1.959287      0.197837      0.096044
  O      -2.212936      0.583678      1.226691
  O      -2.804005     -0.131395     -0.721792
  H       2.880723     -0.743102     -0.394120
  O       2.670301     -0.694575      0.547532
  H       2.572159      0.250242      0.724089
10
Coordinates from ORCA-job neb E -321.457256854111
  C      -0.520994      0.126460     -0.298434
  H      -0.436179     -0.516285     -1.167059
  H      -0.219403      1.146524     -0.533400
  H       0.042762     -0.244514      0.551212
  N      -1.958131      0.196879      0.095002
  O      -2.217100      0.589501      1.222036
  O      -2.799791     -0.122135     -0.729953
  H       2.872032     -0.725174     -0.407361
  O       2.669770     -0.695890      0.536736
  H       2.567033      0.244634      0.731222
10
Coordinates from ORCA-job neb E -321.457257041871
  C      -0.521697      0.123858     -0.294429
  H      -0.435122     -0.523549     -1.159397
  H      -0.217420      1.141973     -0.534021
  H       0.038153     -0.243296      0.559201
  N      -1.960264      0.198689      0.093187
  O      -2.222610      0.592856      1.218897
  O      -2.799443     -0.117911     -0.735115
  H       2.872100     -0.714447     -0.415512
  O       2.675825     -0.697687      0.529896
  H       2.570478      0.239515      0.737295
10
Coordinates from ORCA-job neb E -321.457239424894
  C      -0.514623      0.119280     -0.286458
  H      -0.424255     -0.537131     -1.144137
  H      -0.205489      1.133669     -0.533979
  H       0.038434     -0.240689      0.573900
  N      -1.955715      0.202866      0.090037
  O      -2.224822      0.595164      1.214749
  O      -2.789984     -0.113644     -0.743192
  H       2.852325     -0.693590     -0.430719
  O       2.666493     -0.698905      0.516568
  H       2.557635      0.232979      0.743231
10
Coordinates from ORCA-job neb E -321.457259265278
  C      -0.522857      0.123337     -0.294058
  H      -0.436196     -0.524123     -1.158943
  H      -0.218305      1.141246     -0.533760
  H       0.036415     -0.243629      0.559824
  N      -1.961564      0.198233      0.093149
  O      -2.224205      0.594325      1.218112
  O      -2.800572     -0.116775     -0.735863
  H       2.874406     -0.713225     -0.416056
  O       2.679323     -0.697956      0.529356
  H       2.573554      0.238566      0.738240
10
Coordinates from ORCA-job neb E -321.457260994408
  C      -0.525922      0.123180     -0.294121
  H      -0.439406     -0.524075     -1.159206
  H      -0.221009      1.141071     -0.533784
  H       0.032899     -0.243988      0.560086
  N      -1.964734      0.198124      0.092913
  O      -2.227386      0.596166      1.217211
  O      -2.803713     -0.115856     -0.736477
  H       2.881164     -0.713130     -0.416237
  O       2.687148     -0.698810      0.529476
  H       2.580958      0.237318      0.740138
10
Coordinates from ORCA-job neb E -321.457259886235
  C      -0.524137      0.121702     -0.291935
  H      -0.436503     -0.527709     -1.155277
  H      -0.218023      1.138756     -0.533442
  H       0.032869     -0.243779      0.564083
  N      -1.963622      0.198690      0.092239
  O      -2.228076      0.597453      1.215851
  O      -2.801348     -0.114291     -0.738801
  H       2.876023     -0.707475     -0.420427
  O       2.685075     -0.699060      0.525945
  H       2.577742      0.235711      0.741762
10
Coordinates from ORCA-job neb E -321.457259252258
  C      -0.528155      0.122486     -0.291787
  H      -0.440698     -0.527973     -1.154353
  H      -0.220360      1.138774     -0.534099
  H       0.027283     -0.242855      0.565295
  N      -1.968050      0.202090      0.090532
  O      -2.233233      0.598277      1.214900
  O      -2.804985     -0.116071     -0.739300
  H       2.884189     -0.706416     -0.421524
  O       2.695627     -0.701112      0.525408
  H       2.588382      0.232800      0.744927
10
Coordinates from ORCA-job neb E -321.457263198917
  C      -0.530712      0.125893     -0.297542
  H      -0.446039     -0.518394     -1.164995
  H      -0.226806      1.144659     -0.534429
  H       0.030059     -0.243975      0.554201
  N      -1.968632      0.198914      0.093145
  O      -2.228847      0.594747      1.218794
  O      -2.809185     -0.119409     -0.732952
  H       2.892921     -0.721149     -0.409976
  O       2.695681     -0.699515      0.534865
  H       2.591559      0.238230      0.738888
10
Coordinates from ORCA-job neb E -321.457264481479
  C      -0.535157      0.128585     -0.302373
  H      -0.452835     -0.510371     -1.173969
  H      -0.234079      1.149354     -0.534323
  H       0.029503     -0.245357      0.545107
  N      -1.971447      0.196248      0.095074
  O      -2.227691      0.593646      1.221075
  O      -2.814918     -0.121890     -0.728098
  H       2.904617     -0.732654     -0.400418
  O       2.701757     -0.699040      0.542829
  H       2.600250      0.241479      0.735095
10
Coordinates from ORCA-job neb E -321.457263939915
  C      -0.530863      0.125550     -0.297614
  H      -0.446117     -0.518231     -1.165427
  H      -0.227195      1.144542     -0.533844
  H       0.029978     -0.244703      0.553904
  N      -1.968692      0.197888      0.093512
  O      -2.228796      0.595759      1.218456
  O      -2.809439     -0.118805     -0.733022
  H       2.892984     -0.721002     -0.409753
  O       2.696152     -0.699417      0.535154
  H       2.591987      0.238420      0.738634
10
Coordinates from ORCA-job neb E -321.457263824695
  C      -0.531079      0.124483     -0.296027
  H      -0.445506     -0.520763     -1.162667
  H      -0.226188      1.142851     -0.533337
  H       0.028021     -0.244873      0.556999
  N      -1.969487      0.198624      0.092729
  O      -2.231025      0.597800      1.216873
  O      -2.809216     -0.117819     -0.734937
  H       2.892252     -0.716703     -0.413054
  O       2.698666     -0.700158      0.532634
  H       2.593563      0.236559      0.740786
