!  NUMFREQ B3LYP def2-TZVP CPCM D3 
%pal nprocs 102 end
%cpcm epsilon 78.4 end 
*xyz 0 1 
C   -2.06939539131135 2.45354954609385 1.03530822976736
C   -2.07771527175634 1.0673342374543 1.11129860332761
C   -2.07855038472903 0.2816831753952 -0.0450192735145
C   -2.08899716659043 0.92394978709842 -1.28522184238825
C   -2.06891356363235 2.30864124421283 -1.34085505614284
C   -2.05562748426732 3.0951418823151 -0.19796120294418
H   -2.06002619629085 3.04373885478479 1.94276985794587
H   -2.07102114220764 0.58747654015699 2.08099110717573
H   -2.09388897389087 0.35545328127485 -2.20291052504821
Cl   -2.06035884108588 3.09140851139141 -2.91333273397704
H   -2.03559171284198 4.17349576667233 -0.27097742838525
C   -2.1199365153638 -1.20824968030542 0.11110560131266
C   -3.44759926808235 -1.75771148434758 0.60066196686761
H   -3.35389805660944 -2.79189480909686 0.92810515139852
H   -4.21823103342369 -1.70911051387393 -0.17457625275982
H   -3.78015916716484 -1.15966305149545 1.44846977774998
N   -1.56320187149129 -1.9532669766087 -0.97758102806154
O   -2.01404218977492 -3.08106419857148 -1.23380149275538
O   -0.56124497467204 -1.51269715107199 -1.57129695011804
N   1.82069986852636 -0.53106798287724 0.99595369206567
C   2.48812832292896 -1.52174257221151 0.0983134675133
C   3.69795775116254 -0.90713886514402 -0.58870764311899
C   3.31953438179935 0.37117554887677 -1.34005146142736
C   2.625134509341 1.36102137196102 -0.40269237594541
C   1.4273383439953 0.71976170305293 0.27926004554759
H   -1.22096391048299 -1.48567794857159 1.03657285976189 M = 2
H   2.75719482381525 -2.38090994813677 0.71070207043181
H   1.73459818095576 -1.82945475667384 -0.62663302326897
H   4.12444210236062 -1.64701870453607 -1.26858908573702
H   4.46163037904329 -0.68068598867001 0.16237294163181
H   4.20944388010397 0.82685404166714 -1.77787497334209
H   2.64510957995744 0.12136169031066 -2.16541974853083
H   2.2788120662297 2.23936545508318 -0.95061833038197
H   3.33141087244319 1.71172319688403 0.35676909881411
H   0.96566097383617 1.37982103205911 1.01073392114235
H   0.67127669631181 0.42660106213112 -0.44677067064268
H   2.45161001573144 -0.29509942875075 1.76222285865965
H   -0.60736604263147 -1.33862947531546 2.7452973369915
H   0.93402423161949 -0.99996424863661 1.43580861316319
O   -0.29727782186078 -1.74851014398076 1.92817389722215
*
