!  opt B3LYP def2-TZVP CPCM D3 
%pal nprocs 102 end
%cpcm epsilon 78.4 end 
*xyz 0 1 
C   1.85476 2.79668 2.95151
C   2.08132 1.43757 2.73889
C   1.20618 0.68913 1.94951
C   0.09035 1.2986 1.37132
C   -0.10776 2.65111 1.60368
C   0.74759 3.42151 2.37994
H   2.54805 3.37468 3.56824
H   2.94937 0.96009 3.20466
H   -0.60164 0.71972 0.75242
Cl   -1.47819 3.40381 0.89494
H   0.56856 4.48657 2.54453
C   1.46909 -0.78052 1.75872
C   0.30024 -1.63734 2.23003
H   0.51394 -2.71429 2.15052
H   -0.62692 -1.44248 1.67184
H   0.07824 -1.43839 3.29185
N   1.71422 -1.06007 0.30073
O   2.74748 -1.63897 -0.00394
O   0.89775 -0.70037 -0.52651
N   5.03085 -0.74593 1.92489
C   6.15514 -1.698 2.10439
C   7.04839 -1.17235 3.24001
O   7.51539 0.13146 2.93397
C   6.4628 1.06249 2.74189
C   5.55181 0.6034 1.59247
H   4.69314 1.29956 1.47458
H   6.11025 0.61794 0.63115
H   6.99494 2.00032 2.50117
H   5.90548 1.18307 3.68806
H   7.98009 -1.75689 3.34408
H   6.51355 -1.15042 4.20712
H   6.75073 -1.83289 1.17604
H   2.40404 -1.09072 2.31931
H   4.39207 -1.07204 1.19705
H   5.73882 -2.69487 2.36849
H   3.50266 -1.64241 4.62009
H   4.29512 -0.69432 3.70835
O   3.81826 -0.73947 4.56609
*
