!  opt B3LYP def2-TZVP CPCM D3 
%pal nprocs 102 end
%cpcm epsilon 78.4 end 
*xyz 0 1 
C   -0.08605 -0.46341 0.17799
H   -0.07163 -0.91773 -0.81574
N   -0.17269 -2.70545 1.20686
O   -0.60634 -3.12794 0.14742
O   -0.16502 -3.39455 2.21888
H   -0.48249 1.27946 1.35115
C   0.37671 -1.3404 1.29515
H   1.50921 -1.41818 1.28183
H   0.13517 -0.91747 2.30647
C   -0.45595 0.79918 0.38202
H   -0.76132 1.46427 -0.41555
C   6.69408 -3.15063 0.76359
C   8.08913 -3.20744 0.6795
C   8.79121 -2.03261 0.41527
C   8.08581 -0.84334 0.24072
C   6.68989 -0.86978 0.33821
N   6.00582 -2.00272 0.59561
H   6.09365 -4.04736 0.97126
H   8.61154 -4.15346 0.81692
H   8.60513 0.09114 0.03156
H   6.08857 0.03973 0.20631
H   9.88182 -2.04542 0.34581
H   3.06721 -3.43066 0.84365
H   3.99734 -2.27534 0.49713
O   3.07347 -2.56449 0.42372
*
