39
	Energy:    -119.5211600
C         -1.74928        0.54299       -2.88639
C         -0.94544        0.64221       -1.73358
C         -1.18881       -0.19847       -0.60375
C         -2.22447       -1.15199       -0.61179
C         -2.99540       -1.23165       -1.75423
N         -4.08023       -2.05474       -2.03814
C         -4.52183       -1.76905       -3.33552
C         -3.76263       -0.75663       -3.88422
C         -2.76892       -0.37982       -2.91036
H         -3.86915       -0.31275       -4.85070
H         -5.35567       -2.31007       -3.75751
H         -2.39951       -1.79369        0.24763
H         -1.55791        1.19261       -3.74264
N         -0.41335       -0.10104        0.54174
C          0.57020        0.77485        0.58261
C          0.88388        1.64544       -0.50871
H          1.71232        2.34302       -0.40492
H          1.16264        0.81973        1.50916
C          0.13152        1.57622       -1.64620
H          0.33358        2.22450       -2.50368
H         -4.39009       -2.81534       -1.44332
C         -0.85504       -2.17604        3.61338
H         -0.38567       -3.00414        3.07054
H         -0.09875       -1.46585        3.96469
H         -1.45167       -2.54855        4.45402
H         -1.30413       -1.08682        2.00722
O         -1.78349       -1.51171        2.77325
C         -5.61213       -4.78240       -0.21233
H         -5.61803       -5.60761        0.50791
H         -6.37240       -4.03707        0.04541
H         -5.76984       -5.16184       -1.22943
H         -4.08959       -3.80909        0.64645
O         -4.33209       -4.18289       -0.24504
C         -3.60660       -4.38816        3.00015
H         -2.70077       -4.93065        2.70708
H         -3.56476       -4.10381        4.05713
H         -4.50121       -4.99078        2.80071
H         -2.98950       -2.60985        2.33022
O         -3.76126       -3.23104        2.19791
