27
Coordinates from ORCA-job neb_MEP_ALL E -872.242399104084
  C      -2.511250      0.629128     -0.092640
  C      -1.159548      0.669140      0.228416
  C      -0.245917     -0.175900     -0.395933
  C      -0.700252     -1.068568     -1.362927
  C      -2.051955     -1.089781     -1.675774
  C      -2.974132     -0.255626     -1.053356
  H      -3.207588      1.290059      0.408257
  H      -0.799412      1.356161      0.982055
  H      -0.025202     -1.739137     -1.875407
  H      -4.018419     -0.305147     -1.319727
  N      -2.524561     -2.029192     -2.696284
  O      -3.719314     -2.038231     -2.966290
  O      -1.703835     -2.758825     -3.238369
  C       1.210924     -0.114149     -0.012535
  H       1.310192      0.527648      0.897251
  C       1.863072     -1.457643      0.253219
  H       2.875662     -1.328813      0.625383
  H       1.892900     -2.087281     -0.635309
  H       1.278617     -1.966446      1.017595
  N       1.983204      0.671277     -1.060882
  O       3.165009      0.405555     -1.234957
  O       1.405986      1.584375     -1.637528
  O       2.491364      3.271419      3.553152
  H       2.385317      3.261154      4.510595
  H       0.422704      1.149693      2.938109
  H       2.017547      2.417171      3.201087
  O       1.338887      1.181958      2.642798
27
Coordinates from ORCA-job neb_MEP_ALL E -872.242456591779
  C      -2.518226      0.629161     -0.100686
  C      -1.165187      0.670261      0.223221
  C      -0.249691     -0.178100     -0.401558
  C      -0.704068     -1.072963     -1.363685
  C      -2.055645     -1.094731     -1.676717
  C      -2.978265     -0.259570     -1.059980
  H      -3.212946      1.290999      0.396293
  H      -0.806540      1.360340      0.973978
  H      -0.029092     -1.744311     -1.872600
  H      -4.022735     -0.309173     -1.326892
  N      -2.526730     -2.036764     -2.697174
  O      -3.722577     -2.054178     -2.961210
  O      -1.704228     -2.762441     -3.242454
  C       1.204897     -0.113686     -0.014624
  H       1.304070      0.522994      0.898752
  C       1.859243     -1.457449      0.249534
  H       2.871169     -1.327598      0.625748
  H       1.893451     -2.084922     -0.641753
  H       1.273154     -1.971555      1.011367
  N       1.980528      0.670730     -1.057292
  O       3.173233      0.438111     -1.193712
  O       1.395485      1.555508     -1.672004
  O       2.497491      3.282968      3.586938
  H       2.425116      3.222020      4.546536
  H       0.442343      1.169023      2.933407
  H       2.021421      2.437379      3.215446
  O       1.354329      1.217944      2.621122
27
Coordinates from ORCA-job neb_MEP_ALL E -872.242422908887
  C      -2.523937      0.628638     -0.109786
  C      -1.171361      0.671000      0.215832
  C      -0.255137     -0.179214     -0.405166
  C      -0.708542     -1.077585     -1.364579
  C      -2.059653     -1.100768     -1.679067
  C      -2.983148     -0.263344     -1.066422
  H      -3.219337      1.292517      0.383678
  H      -0.814181      1.364260      0.964907
  H      -0.032948     -1.750791     -1.870195
  H      -4.027197     -0.313645     -1.334775
  N      -2.529147     -2.045679     -2.697459
  O      -3.726228     -2.071089     -2.955668
  O      -1.704602     -2.765819     -3.246949
  C       1.198261     -0.114640     -0.015791
  H       1.297712      0.520215      0.899325
  C       1.855242     -1.458046      0.245790
  H       2.865539     -1.326352      0.625803
  H       1.894033     -2.081856     -0.648077
  H       1.267839     -1.976495      1.003616
  N       1.976572      0.670795     -1.053143
  O       3.181689      0.474570     -1.148669
  O       1.385397      1.522421     -1.709860
  O       2.502124      3.294897      3.626532
  H       2.469328      3.179442      4.583547
  H       0.464674      1.189784      2.927921
  H       2.027924      2.459454      3.230529
  O       1.369085      1.257330      2.598126
27
Coordinates from ORCA-job neb_MEP_ALL E -872.242378387793
  C      -2.529009      0.628163     -0.117918
  C      -1.176860      0.671650      0.209216
  C      -0.260007     -0.180203     -0.408392
  C      -0.712536     -1.081694     -1.365359
  C      -2.063238     -1.106163     -1.681185
  C      -2.987514     -0.266701     -1.072160
  H      -3.225054      1.293881      0.372416
  H      -0.820995      1.367732      0.956795
  H      -0.036404     -1.756577     -1.868045
  H      -4.031181     -0.317634     -1.341814
  N      -2.531331     -2.053651     -2.697705
  O      -3.729441     -2.086188     -2.950708
  O      -1.704989     -2.768807     -3.250952
  C       1.192426     -0.115421     -0.016775
  H       1.292049      0.517755      0.899787
  C       1.851655     -1.458590      0.242407
  H       2.860493     -1.325236      0.625833
  H       1.894542     -2.079099     -0.653698
  H       1.263107     -1.980885      0.996665
  N       1.973423      0.671285     -1.049842
  O       3.187272      0.508123     -1.108315
  O       1.377856      1.491345     -1.743232
  O       2.505671      3.305078      3.663632
  H       2.509054      3.141119      4.614370
  H       0.485005      1.208343      2.922867
  H       2.033968      2.479610      3.244383
  O       1.382035      1.292767      2.577728
27
Coordinates from ORCA-job neb_MEP_ALL E -872.242363929937
  C      -2.533739      0.627710     -0.125541
  C      -1.181991      0.672256      0.203004
  C      -0.264560     -0.181127     -0.411429
  C      -0.716275     -1.085530     -1.366075
  C      -2.066598     -1.111218     -1.683178
  C      -2.991599     -0.269837     -1.077524
  H      -3.230408      1.295163      0.361865
  H      -0.827365      1.370961      0.949188
  H      -0.039646     -1.761995     -1.866026
  H      -4.034910     -0.321368     -1.348408
  N      -2.533395     -2.061131     -2.697932
  O      -3.732387     -2.100332     -2.946049
  O      -1.705401     -2.771586     -3.254685
  C       1.187079     -0.116043     -0.017647
  H       1.286746      0.515437      0.900156
  C       1.848291     -1.459104      0.239196
  H       2.855759     -1.324185      0.625850
  H       1.895010     -2.076505     -0.658934
  H       1.258689     -1.984971      0.990133
  N       1.970867      0.672147     -1.047192
  O       3.190225      0.540423     -1.070745
  O       1.372504      1.460879     -1.773632
  O       2.508618      3.313855      3.699873
  H       2.546232      3.105252      4.641155
  H       0.504398      1.225768      2.917973
  H       2.039853      2.498865      3.257788
  O       1.394004      1.326215      2.558817
27
Coordinates from ORCA-job neb_MEP_ALL E -872.242385891326
  C      -2.538215      0.627272     -0.132798
  C      -1.186847      0.672832      0.197084
  C      -0.268875     -0.181995     -0.414337
  C      -0.719823     -1.089164     -1.366744
  C      -2.069790     -1.116027     -1.685081
  C      -2.995474     -0.272811     -1.082618
  H      -3.235496      1.296382      0.351829
  H      -0.833409      1.374011      0.941943
  H      -0.042728     -1.767139     -1.864104
  H      -4.038448     -0.324920     -1.354680
  N      -2.535369     -2.068254     -2.698147
  O      -3.735112     -2.113781     -2.941609
  O      -1.705838     -2.774208     -3.258218
  C       1.182127     -0.116506     -0.018437
  H       1.281698      0.513217      0.900429
  C       1.845099     -1.459579      0.236100
  H       2.851260     -1.323167      0.625853
  H       1.895454     -2.074018     -0.663883
  H       1.254509     -1.988824      0.983903
  N       1.968881      0.673402     -1.045160
  O       3.190520      0.571812     -1.035529
  O       1.369227      1.430665     -1.801296
  O       2.511242      3.321150      3.735750
  H       2.581297      3.071508      4.664501
  H       0.523182      1.242401      2.913139
  H       2.045691      2.517503      3.271029
  O       1.405238      1.358241      2.541081
27
Coordinates from ORCA-job neb_MEP_ALL E -872.242417120173
  C      -2.543812      0.626728     -0.141779
  C      -1.192855      0.673581      0.189801
  C      -0.274148     -0.183078     -0.418015
  C      -0.724220     -1.093683     -1.367592
  C      -2.073752     -1.121970     -1.687385
  C      -3.000248     -0.276511     -1.088948
  H      -3.241760      1.297856      0.339381
  H      -0.840894      1.377806      0.933000
  H      -0.046536     -1.773481     -1.861708
  H      -4.042826     -0.329328     -1.362449
  N      -2.537818     -2.077055     -2.698459
  O      -3.738391     -2.130439     -2.936092
  O      -1.706398     -2.777452     -3.262583
  C       1.176136     -0.116808     -0.019500
  H       1.275418      0.510352      0.900773
  C       1.841181     -1.460132      0.232239
  H       2.845714     -1.321863      0.625850
  H       1.896012     -2.070920     -0.670020
  H       1.249334     -1.993574      0.976192
  N       1.966891      0.675351     -1.043081
  O       3.188667      0.610877     -0.992649
  O       1.366648      1.392409     -1.834127
  O       2.514683      3.328979      3.781443
  H       2.624134      3.030431      4.691386
  H       0.546744      1.263103      2.907010
  H       2.053051      2.540826      3.287997
  O       1.419045      1.397994      2.519315
27
Coordinates from ORCA-job neb_MEP_ALL E -872.242390125106
  C      -2.549328      0.625968     -0.150691
  C      -1.199025      0.674811      0.182510
  C      -0.279056     -0.183599     -0.420947
  C      -0.729250     -1.098722     -1.369061
  C      -2.077971     -1.128074     -1.689360
  C      -3.004927     -0.280056     -1.095113
  H      -3.247463      1.299125      0.327107
  H      -0.848200      1.381874      0.924885
  H      -0.049898     -1.780163     -1.859563
  H      -4.047046     -0.333712     -1.370089
  N      -2.540266     -2.085515     -2.699119
  O      -3.741223     -2.146391     -2.930281
  O      -1.706775     -2.780568     -3.266917
  C       1.170846     -0.114460     -0.022185
  H       1.269010      0.506865      0.901529
  C       1.838040     -1.461482      0.228926
  H       2.840188     -1.320323      0.625771
  H       1.896586     -2.067790     -0.676165
  H       1.244275     -1.997986      0.968451
  N       1.964994      0.676700     -1.040872
  O       3.184281      0.649219     -0.951892
  O       1.365826      1.353776     -1.864339
  O       2.519050      3.335229      3.827310
  H       2.664913      2.991589      4.715490
  H       0.570281      1.283938      2.901493
  H       2.059665      2.563634      3.305756
  O       1.432471      1.436111      2.497365
27
Coordinates from ORCA-job neb_MEP_ALL E -872.242399104084
  C      -2.511250      0.629128     -0.092640
  C      -1.159548      0.669140      0.228416
  C      -0.245917     -0.175900     -0.395933
  C      -0.700252     -1.068568     -1.362927
  C      -2.051955     -1.089781     -1.675774
  C      -2.974132     -0.255626     -1.053356
  H      -3.207588      1.290059      0.408257
  H      -0.799412      1.356161      0.982055
  H      -0.025202     -1.739137     -1.875407
  H      -4.018419     -0.305147     -1.319727
  N      -2.524561     -2.029192     -2.696284
  O      -3.719314     -2.038231     -2.966290
  O      -1.703835     -2.758825     -3.238369
  C       1.210924     -0.114149     -0.012535
  H       1.310192      0.527648      0.897251
  C       1.863072     -1.457643      0.253219
  H       2.875662     -1.328813      0.625383
  H       1.892900     -2.087281     -0.635309
  H       1.278617     -1.966446      1.017595
  N       1.983204      0.671277     -1.060882
  O       3.165009      0.405555     -1.234957
  O       1.405986      1.584375     -1.637528
  O       2.491364      3.271419      3.553152
  H       2.385317      3.261154      4.510595
  H       0.422704      1.149693      2.938109
  H       2.017547      2.417171      3.201087
  O       1.338887      1.181958      2.642798
27
Coordinates from ORCA-job neb_MEP_ALL E -872.242506565767
  C      -2.517577      0.628899     -0.100669
  C      -1.165534      0.669599      0.222903
  C      -0.249876     -0.177439     -0.401519
  C      -0.704142     -1.073047     -1.363788
  C      -2.055522     -1.094872     -1.676705
  C      -2.978541     -0.259330     -1.059912
  H      -3.213249      1.291188      0.396377
  H      -0.806466      1.360746      0.974254
  H      -0.029094     -1.744170     -1.872513
  H      -4.022738     -0.309184     -1.326924
  N      -2.526650     -2.036682     -2.697302
  O      -3.722531     -2.054340     -2.961252
  O      -1.704321     -2.762496     -3.242345
  C       1.205155     -0.113626     -0.015120
  H       1.303917      0.522219      0.899275
  C       1.859191     -1.457549      0.249597
  H       2.871228     -1.327574      0.625799
  H       1.893449     -2.084953     -0.641835
  H       1.273082     -1.971595      1.011473
  N       1.980966      0.671969     -1.058520
  O       3.172842      0.437848     -1.193337
  O       1.395570      1.554733     -1.671171
  O       2.497805      3.283065      3.587461
  H       2.425189      3.221831      4.545960
  H       0.443076      1.169167      2.933145
  H       2.020683      2.437685      3.215470
  O       1.354086      1.217907      2.621199
27
Coordinates from ORCA-job neb_MEP_ALL E -872.242521834340
  C      -2.523399      0.628418     -0.109798
  C      -1.171699      0.670410      0.215550
  C      -0.255377     -0.178697     -0.405099
  C      -0.708634     -1.077668     -1.364689
  C      -2.059538     -1.100876     -1.679087
  C      -2.983374     -0.263151     -1.066377
  H      -3.219651      1.292697      0.383719
  H      -0.814131      1.364592      0.965063
  H      -0.032967     -1.750670     -1.870107
  H      -4.027220     -0.313672     -1.334825
  N      -2.529163     -2.045686     -2.697593
  O      -3.726162     -2.071303     -2.955693
  O      -1.704683     -2.765867     -3.246848
  C       1.198450     -0.114604     -0.016227
  H       1.297584      0.519669      0.899843
  C       1.855190     -1.458243      0.245886
  H       2.865525     -1.326337      0.625834
  H       1.894031     -2.081849     -0.648141
  H       1.267772     -1.976572      1.003686
  N       1.978038      0.672821     -1.055449
  O       3.180423      0.474306     -1.147763
  O       1.385407      1.520938     -1.708537
  O       2.502397      3.295074      3.627556
  H       2.469626      3.179266      4.583086
  H       0.465324      1.189919      2.927627
  H       2.027411      2.459771      3.230275
  O       1.368819      1.257314      2.598106
27
Coordinates from ORCA-job neb_MEP_ALL E -872.242506819570
  C      -2.528567      0.627991     -0.117911
  C      -1.177160      0.671128      0.209002
  C      -0.260223     -0.179817     -0.408288
  C      -0.712634     -1.081767     -1.365483
  C      -2.063115     -1.106205     -1.681208
  C      -2.987667     -0.266545     -1.072115
  H      -3.225340      1.294032      0.372471
  H      -0.820936      1.367970      0.956885
  H      -0.036425     -1.756438     -1.867962
  H      -4.031205     -0.317655     -1.341844
  N      -2.531413     -2.053688     -2.697836
  O      -3.729340     -2.086376     -2.950742
  O      -1.705060     -2.768839     -3.250843
  C       1.192567     -0.115374     -0.017121
  H       1.291974      0.517405      0.900252
  C       1.851628     -1.458857      0.242540
  H       2.860441     -1.325241      0.625845
  H       1.894533     -2.079081     -0.653724
  H       1.263069     -1.980972      0.996736
  N       1.975551      0.673744     -1.052747
  O       3.185281      0.507807     -1.107329
  O       1.378015      1.489533     -1.741473
  O       2.505878      3.305208      3.664848
  H       2.509322      3.141116      4.613807
  H       0.485464      1.208373      2.922575
  H       2.033633      2.479879      3.243918
  O       1.381729      1.292668      2.577747
27
Coordinates from ORCA-job neb_MEP_ALL E -872.242490766020
  C      -2.533374      0.627594     -0.125479
  C      -1.182231      0.671798      0.202877
  C      -0.264685     -0.180855     -0.411274
  C      -0.716367     -1.085588     -1.366218
  C      -2.066456     -1.111173     -1.683188
  C      -2.991662     -0.269710     -1.077463
  H      -3.230637      1.295276      0.361974
  H      -0.827266      1.371093      0.949248
  H      -0.039657     -1.761813     -1.865953
  H      -4.034916     -0.321366     -1.348388
  N      -2.533518     -2.061152     -2.698045
  O      -3.732252     -2.100434     -2.946115
  O      -1.705460     -2.771603     -3.254556
  C       1.187165     -0.115991     -0.017877
  H       1.286744      0.515264      0.900525
  C       1.848306     -1.459410      0.239372
  H       2.855696     -1.324218      0.625845
  H       1.894990     -2.076501     -0.658906
  H       1.258700     -1.985045      0.990234
  N       1.973215      0.674632     -1.050185
  O       3.187994      0.539928     -1.070020
  O       1.372770      1.459276     -1.771626
  O       2.508747      3.313886      3.700956
  H       2.546273      3.105532      4.640429
  H       0.504572      1.225624      2.917706
  H       2.039645      2.498991      3.257144
  O       1.393663      1.325963      2.558984
27
Coordinates from ORCA-job neb_MEP_ALL E -872.242489663839
  C      -2.537931      0.627217     -0.132685
  C      -1.187032      0.672440      0.197026
  C      -0.268864     -0.181827     -0.414131
  C      -0.719916     -1.089217     -1.366914
  C      -2.069632     -1.115896     -1.685072
  C      -2.995453     -0.272720     -1.082553
  H      -3.235665      1.296456      0.351976
  H      -0.833273      1.374043      0.941967
  H      -0.042733     -1.766919     -1.864035
  H      -4.038436     -0.324896     -1.354618
  N      -2.535516     -2.068252     -2.698228
  O      -3.734965     -2.113813     -2.941705
  O      -1.705878     -2.774227     -3.258078
  C       1.182117     -0.116477     -0.018526
  H       1.281759      0.513191      0.900657
  C       1.845152     -1.459891      0.236305
  H       2.851188     -1.323230      0.625832
  H       1.895422     -2.074037     -0.663814
  H       1.254569     -1.988881      0.984023
  N       1.970902      0.675425     -1.047631
  O       3.188789      0.571172     -1.035130
  O       1.369357      1.429727     -1.799537
  O       2.511284      3.321186      3.736364
  H       2.581145      3.071917      4.663921
  H       0.523060      1.242101      2.912908
  H       2.045588      2.517464      3.270291
  O       1.404962      1.357944      2.541389
27
Coordinates from ORCA-job neb_MEP_ALL E -872.242469768054
  C      -2.543620      0.626730     -0.141682
  C      -1.193024      0.673245      0.189728
  C      -0.274016     -0.182998     -0.417759
  C      -0.724340     -1.093750     -1.367791
  C      -2.073598     -1.121798     -1.687395
  C      -3.000182     -0.276478     -1.088917
  H      -3.241923      1.297909      0.339480
  H      -0.840775      1.377750      0.932910
  H      -0.046562     -1.773268     -1.861632
  H      -4.042822     -0.329313     -1.362400
  N      -2.537987     -2.077091     -2.698482
  O      -3.738266     -2.130519     -2.936189
  O      -1.706427     -2.777493     -3.262470
  C       1.175966     -0.116873     -0.019380
  H       1.275497      0.510459      0.900780
  C       1.841236     -1.460420      0.232424
  H       2.845594     -1.321950      0.625809
  H       1.895974     -2.070937     -0.669945
  H       1.249425     -1.993629      0.976257
  N       1.968126      0.676545     -1.044515
  O       3.187694      0.610529     -0.992440
  O       1.366728      1.392069     -1.833135
  O       2.514604      3.329015      3.781904
  H       2.624075      3.030654      4.691015
  H       0.546520      1.262789      2.906747
  H       2.053160      2.540789      3.287391
  O       1.418942      1.398032      2.519684
27
Coordinates from ORCA-job neb_MEP_ALL E -872.242390125106
  C      -2.549330      0.625959     -0.150693
  C      -1.199028      0.674807      0.182509
  C      -0.279055     -0.183600     -0.420946
  C      -0.729245     -1.098727     -1.369059
  C      -2.077966     -1.128084     -1.689359
  C      -3.004925     -0.280068     -1.095113
  H      -3.247467      1.299114      0.327104
  H      -0.848205      1.381873      0.924882
  H      -0.049891     -1.780166     -1.859559
  H      -4.047044     -0.333728     -1.370089
  N      -2.540259     -2.085528     -2.699115
  O      -3.741215     -2.146409     -2.930278
  O      -1.706764     -2.780580     -3.266912
  C       1.170847     -0.114456     -0.022184
  H       1.269008      0.506871      0.901528
  C       1.838045     -1.461475      0.228929
  H       2.840192     -1.320312      0.625774
  H       1.896593     -2.067784     -0.676161
  H       1.244282     -1.997980      0.968455
  N       1.964992      0.676705     -1.040872
  O       3.184279      0.649228     -0.951893
  O       1.365821      1.353777     -1.864342
  O       2.519038      3.335245      3.827305
  H       2.664902      2.991607      4.715485
  H       0.570276      1.283945      2.901491
  H       2.059655      2.563647      3.305752
  O       1.432465      1.436120      2.497363
