27
Coordinates from ORCA-job neb_MEP E -872.242399104084
  C      -2.511250      0.629128     -0.092640
  C      -1.159548      0.669140      0.228416
  C      -0.245917     -0.175900     -0.395933
  C      -0.700252     -1.068568     -1.362927
  C      -2.051955     -1.089781     -1.675774
  C      -2.974132     -0.255626     -1.053356
  H      -3.207588      1.290059      0.408257
  H      -0.799412      1.356161      0.982055
  H      -0.025202     -1.739137     -1.875407
  H      -4.018419     -0.305147     -1.319727
  N      -2.524561     -2.029192     -2.696284
  O      -3.719314     -2.038231     -2.966290
  O      -1.703835     -2.758825     -3.238369
  C       1.210924     -0.114149     -0.012535
  H       1.310192      0.527648      0.897251
  C       1.863072     -1.457643      0.253219
  H       2.875662     -1.328813      0.625383
  H       1.892900     -2.087281     -0.635309
  H       1.278617     -1.966446      1.017595
  N       1.983204      0.671277     -1.060882
  O       3.165009      0.405555     -1.234957
  O       1.405986      1.584375     -1.637528
  O       2.491364      3.271419      3.553152
  H       2.385317      3.261154      4.510595
  H       0.422704      1.149693      2.938109
  H       2.017547      2.417171      3.201087
  O       1.338887      1.181958      2.642798
27
Coordinates from ORCA-job neb_MEP E -872.242506565767
  C      -2.517577      0.628899     -0.100669
  C      -1.165534      0.669599      0.222903
  C      -0.249876     -0.177439     -0.401519
  C      -0.704142     -1.073047     -1.363788
  C      -2.055522     -1.094872     -1.676705
  C      -2.978541     -0.259330     -1.059912
  H      -3.213249      1.291188      0.396377
  H      -0.806466      1.360746      0.974254
  H      -0.029094     -1.744170     -1.872513
  H      -4.022738     -0.309184     -1.326924
  N      -2.526650     -2.036682     -2.697302
  O      -3.722531     -2.054340     -2.961252
  O      -1.704321     -2.762496     -3.242345
  C       1.205155     -0.113626     -0.015120
  H       1.303917      0.522219      0.899275
  C       1.859191     -1.457549      0.249597
  H       2.871228     -1.327574      0.625799
  H       1.893449     -2.084953     -0.641835
  H       1.273082     -1.971595      1.011473
  N       1.980966      0.671969     -1.058520
  O       3.172842      0.437848     -1.193337
  O       1.395570      1.554733     -1.671171
  O       2.497805      3.283065      3.587461
  H       2.425189      3.221831      4.545960
  H       0.443076      1.169167      2.933145
  H       2.020683      2.437685      3.215470
  O       1.354086      1.217907      2.621199
27
Coordinates from ORCA-job neb_MEP E -872.242521834340
  C      -2.523399      0.628418     -0.109798
  C      -1.171699      0.670410      0.215550
  C      -0.255377     -0.178697     -0.405099
  C      -0.708634     -1.077668     -1.364689
  C      -2.059538     -1.100876     -1.679087
  C      -2.983374     -0.263151     -1.066377
  H      -3.219651      1.292697      0.383719
  H      -0.814131      1.364592      0.965063
  H      -0.032967     -1.750670     -1.870107
  H      -4.027220     -0.313672     -1.334825
  N      -2.529163     -2.045686     -2.697593
  O      -3.726162     -2.071303     -2.955693
  O      -1.704683     -2.765867     -3.246848
  C       1.198450     -0.114604     -0.016227
  H       1.297584      0.519669      0.899843
  C       1.855190     -1.458243      0.245886
  H       2.865525     -1.326337      0.625834
  H       1.894031     -2.081849     -0.648141
  H       1.267772     -1.976572      1.003686
  N       1.978038      0.672821     -1.055449
  O       3.180423      0.474306     -1.147763
  O       1.385407      1.520938     -1.708537
  O       2.502397      3.295074      3.627556
  H       2.469626      3.179266      4.583086
  H       0.465324      1.189919      2.927627
  H       2.027411      2.459771      3.230275
  O       1.368819      1.257314      2.598106
27
Coordinates from ORCA-job neb_MEP E -872.242506819570
  C      -2.528567      0.627991     -0.117911
  C      -1.177160      0.671128      0.209002
  C      -0.260223     -0.179817     -0.408288
  C      -0.712634     -1.081767     -1.365483
  C      -2.063115     -1.106205     -1.681208
  C      -2.987667     -0.266545     -1.072115
  H      -3.225340      1.294032      0.372471
  H      -0.820936      1.367970      0.956885
  H      -0.036425     -1.756438     -1.867962
  H      -4.031205     -0.317655     -1.341844
  N      -2.531413     -2.053688     -2.697836
  O      -3.729340     -2.086376     -2.950742
  O      -1.705060     -2.768839     -3.250843
  C       1.192567     -0.115374     -0.017121
  H       1.291974      0.517405      0.900252
  C       1.851628     -1.458857      0.242540
  H       2.860441     -1.325241      0.625845
  H       1.894533     -2.079081     -0.653724
  H       1.263069     -1.980972      0.996736
  N       1.975551      0.673744     -1.052747
  O       3.185281      0.507807     -1.107329
  O       1.378015      1.489533     -1.741473
  O       2.505878      3.305208      3.664848
  H       2.509322      3.141116      4.613807
  H       0.485464      1.208373      2.922575
  H       2.033633      2.479879      3.243918
  O       1.381729      1.292668      2.577747
27
Coordinates from ORCA-job neb_MEP E -872.242490766020
  C      -2.533374      0.627594     -0.125479
  C      -1.182231      0.671798      0.202877
  C      -0.264685     -0.180855     -0.411274
  C      -0.716367     -1.085588     -1.366218
  C      -2.066456     -1.111173     -1.683188
  C      -2.991662     -0.269710     -1.077463
  H      -3.230637      1.295276      0.361974
  H      -0.827266      1.371093      0.949248
  H      -0.039657     -1.761813     -1.865953
  H      -4.034916     -0.321366     -1.348388
  N      -2.533518     -2.061152     -2.698045
  O      -3.732252     -2.100434     -2.946115
  O      -1.705460     -2.771603     -3.254556
  C       1.187165     -0.115991     -0.017877
  H       1.286744      0.515264      0.900525
  C       1.848306     -1.459410      0.239372
  H       2.855696     -1.324218      0.625845
  H       1.894990     -2.076501     -0.658906
  H       1.258700     -1.985045      0.990234
  N       1.973215      0.674632     -1.050185
  O       3.187994      0.539928     -1.070020
  O       1.372770      1.459276     -1.771626
  O       2.508747      3.313886      3.700956
  H       2.546273      3.105532      4.640429
  H       0.504572      1.225624      2.917706
  H       2.039645      2.498991      3.257144
  O       1.393663      1.325963      2.558984
27
Coordinates from ORCA-job neb_MEP E -872.242489663839
  C      -2.537931      0.627217     -0.132685
  C      -1.187032      0.672440      0.197026
  C      -0.268864     -0.181827     -0.414131
  C      -0.719916     -1.089217     -1.366914
  C      -2.069632     -1.115896     -1.685072
  C      -2.995453     -0.272720     -1.082553
  H      -3.235665      1.296456      0.351976
  H      -0.833273      1.374043      0.941967
  H      -0.042733     -1.766919     -1.864035
  H      -4.038436     -0.324896     -1.354618
  N      -2.535516     -2.068252     -2.698228
  O      -3.734965     -2.113813     -2.941705
  O      -1.705878     -2.774227     -3.258078
  C       1.182117     -0.116477     -0.018526
  H       1.281759      0.513191      0.900657
  C       1.845152     -1.459891      0.236305
  H       2.851188     -1.323230      0.625832
  H       1.895422     -2.074037     -0.663814
  H       1.254569     -1.988881      0.984023
  N       1.970902      0.675425     -1.047631
  O       3.188789      0.571172     -1.035130
  O       1.369357      1.429727     -1.799537
  O       2.511284      3.321186      3.736364
  H       2.581145      3.071917      4.663921
  H       0.523060      1.242101      2.912908
  H       2.045588      2.517464      3.270291
  O       1.404962      1.357944      2.541389
27
Coordinates from ORCA-job neb_MEP E -872.242469768054
  C      -2.543620      0.626730     -0.141682
  C      -1.193024      0.673245      0.189728
  C      -0.274016     -0.182998     -0.417759
  C      -0.724340     -1.093750     -1.367791
  C      -2.073598     -1.121798     -1.687395
  C      -3.000182     -0.276478     -1.088917
  H      -3.241923      1.297909      0.339480
  H      -0.840775      1.377750      0.932910
  H      -0.046562     -1.773268     -1.861632
  H      -4.042822     -0.329313     -1.362400
  N      -2.537987     -2.077091     -2.698482
  O      -3.738266     -2.130519     -2.936189
  O      -1.706427     -2.777493     -3.262470
  C       1.175966     -0.116873     -0.019380
  H       1.275497      0.510459      0.900780
  C       1.841236     -1.460420      0.232424
  H       2.845594     -1.321950      0.625809
  H       1.895974     -2.070937     -0.669945
  H       1.249425     -1.993629      0.976257
  N       1.968126      0.676545     -1.044515
  O       3.187694      0.610529     -0.992440
  O       1.366728      1.392069     -1.833135
  O       2.514604      3.329015      3.781904
  H       2.624075      3.030654      4.691015
  H       0.546520      1.262789      2.906747
  H       2.053160      2.540789      3.287391
  O       1.418942      1.398032      2.519684
27
Coordinates from ORCA-job neb_MEP E -872.242390125106
  C      -2.549330      0.625959     -0.150693
  C      -1.199028      0.674807      0.182509
  C      -0.279055     -0.183600     -0.420946
  C      -0.729245     -1.098727     -1.369059
  C      -2.077966     -1.128084     -1.689359
  C      -3.004925     -0.280068     -1.095113
  H      -3.247467      1.299114      0.327104
  H      -0.848205      1.381873      0.924882
  H      -0.049891     -1.780166     -1.859559
  H      -4.047044     -0.333728     -1.370089
  N      -2.540259     -2.085528     -2.699115
  O      -3.741215     -2.146409     -2.930278
  O      -1.706764     -2.780580     -3.266912
  C       1.170847     -0.114456     -0.022184
  H       1.269008      0.506871      0.901528
  C       1.838045     -1.461475      0.228929
  H       2.840192     -1.320312      0.625774
  H       1.896593     -2.067784     -0.676161
  H       1.244282     -1.997980      0.968455
  N       1.964992      0.676705     -1.040872
  O       3.184279      0.649228     -0.951893
  O       1.365821      1.353777     -1.864342
  O       2.519038      3.335245      3.827305
  H       2.664902      2.991607      4.715485
  H       0.570276      1.283945      2.901491
  H       2.059655      2.563647      3.305752
  O       1.432465      1.436120      2.497363
