!  NUMFREQ B3LYP def2-TZVP CPCM D3 
%pal nprocs 102 end
%cpcm epsilon 78.4 end 
*xyz -1 1 
C   0.61600701316811 -0.75974943440403 0.8076304862956
H   1.01628057920438 -1.34876058358563 -0.0096197419624
H   0.13813457886498 0.14208267885365 0.42900100289256
H   1.35985572597066 -0.514883715081 1.55576966511797
N   -0.46145672384236 -1.5617388820096 1.45904961985919
O   -0.60784390158529 -1.45761623886671 2.66653399512089
O   -1.1591816359717 -2.26233918139371 0.74188336832721
C   5.85994168214957 0.65408994571187 -0.08573859017254
O   7.05168622414637 0.77195877907729 -0.43935073074221
O   4.88633449611077 0.28896772111761 -0.7908451243144
C   5.64647676994369 1.03806138649963 1.39054957471386
Cl   4.01078754204012 0.66963585422958 2.08632364524707
H   5.79427820675061 2.10944967286172 1.51265413669294
H   6.36310516471322 0.50672178172719 2.00961099184192
H   2.29473482940093 1.83818551000727 0.03834689392802
O   2.47411661484361 1.55585743835217 -0.86687230613355
H   3.33148640409223 1.07041823690268 -0.79773371671216
*
