!  NUMFREQ B3LYP def2-TZVP CPCM D3 
%pal nprocs 102 end
%cpcm epsilon 78.4 end 
*xyz -1 1 
C   0.74816626743471 -1.38588318907674 1.59328564605549
H   1.39789797136856 -1.47273734124552 0.72838648092626
H   0.95564188327355 -0.46404791948582 2.13564808314259
H   0.8078083776349 -2.24584288452927 2.25167951293382
N   -0.65795523078564 -1.27382636985729 1.10696612614734
O   -1.54417562277645 -1.75892713981927 1.78781128693849
O   -0.85590243531584 -0.67260467291854 0.05923140509838
C   0.14147686584681 2.80110437006251 -3.92139197298764
O   0.29775517849708 2.5712716237003 -2.68265085000067
O   0.59411494917581 2.10067926364336 -4.8549091857159
C   -0.67839433934381 4.04607146878757 -4.26713071456473
H   -0.70261364558749 4.22712999003463 -5.3404173624663
H   -0.25868295870813 4.91779225874295 -3.76098148236593
H   -1.70124260094266 3.92080156162459 -3.90209569837155
H   0.9770223111547 1.08676324984816 -2.21603738656194
O   1.32393033828143 0.21579023294388 -1.88114820405834
H   0.64589400079248 -0.10573260245554 -1.27169508414929
*
