10
Coordinates from ORCA-job /home/rudenko/mopac_kie/for_orca/CH3NO2_H2O_near/orca/orca_end/end E -321.378006594394
  C       0.563940     -0.789320      0.406120
  H       0.502320     -1.714860     -0.140360
  H       0.658640      0.106770     -0.184960
  H       2.402520     -0.729320      0.311260
  N       0.248490     -0.733650      1.698240
  O       0.199790      0.360000      2.315430
  O       0.007630     -1.774810      2.358400
  H       3.097730     -2.168660      0.184380
  O       3.256670     -1.263420      0.648830
  H       3.993110     -0.849270      0.061920
10
Coordinates from ORCA-job /home/rudenko/mopac_kie/for_orca/CH3NO2_H2O_near/orca/orca_end/end E -321.384862063850
  C       0.561959     -0.788045      0.401349
  H       0.484229     -1.722712     -0.131711
  H       0.648938      0.118612     -0.174012
  H       2.389088     -0.749919      0.315472
  N       0.245432     -0.729727      1.701657
  O       0.211901      0.383200      2.307711
  O       0.000728     -1.791305      2.348866
  H       3.143537     -2.145078      0.184455
  O       3.261914     -1.269503      0.621980
  H       3.983113     -0.862063      0.083492
10
Coordinates from ORCA-job /home/rudenko/mopac_kie/for_orca/CH3NO2_H2O_near/orca/orca_end/end E -321.388311572626
  C       0.569429     -0.786873      0.394193
  H       0.469252     -1.731014     -0.118684
  H       0.642961      0.133093     -0.160497
  H       2.355824     -0.781980      0.329433
  N       0.247386     -0.724209      1.700695
  O       0.222426      0.397911      2.298950
  O      -0.007700     -1.793195      2.340407
  H       3.190548     -2.147307      0.173620
  O       3.259113     -1.275825      0.595430
  H       3.981602     -0.847140      0.105713
10
Coordinates from ORCA-job /home/rudenko/mopac_kie/for_orca/CH3NO2_H2O_near/orca/orca_end/end E -321.390949076474
  C       0.581197     -0.786083      0.387663
  H       0.465132     -1.733047     -0.115353
  H       0.644528      0.140808     -0.155471
  H       2.318691     -0.806040      0.345024
  N       0.253957     -0.720712      1.696700
  O       0.235015      0.401559      2.292847
  O      -0.004108     -1.787982      2.336094
  H       3.216693     -2.162907      0.165212
  O       3.247825     -1.282500      0.584651
  H       3.971910     -0.819635      0.121894
10
Coordinates from ORCA-job /home/rudenko/mopac_kie/for_orca/CH3NO2_H2O_near/orca/orca_end/end E -321.395260173137
  C       0.592146     -0.784489      0.378536
  H       0.433069     -1.732026     -0.114024
  H       0.638228      0.152850     -0.153467
  H       2.268067     -0.855831      0.368565
  N       0.259906     -0.714389      1.694538
  O       0.255234      0.400352      2.289710
  O      -0.013472     -1.770525      2.332101
  H       3.279479     -2.184772      0.153438
  O       3.252466     -1.295496      0.566507
  H       3.965716     -0.772214      0.143356
10
Coordinates from ORCA-job /home/rudenko/mopac_kie/for_orca/CH3NO2_H2O_near/orca/orca_end/end E -321.399470644286
  C       0.608336     -0.785598      0.367842
  H       0.398716     -1.726536     -0.117626
  H       0.636240      0.157596     -0.157986
  H       2.213598     -0.905166      0.388332
  N       0.271724     -0.710221      1.692795
  O       0.289026      0.396584      2.286358
  O      -0.016889     -1.755777      2.326275
  H       3.332561     -2.194633      0.148501
  O       3.250905     -1.304070      0.554616
  H       3.946623     -0.728718      0.170153
10
Coordinates from ORCA-job /home/rudenko/mopac_kie/for_orca/CH3NO2_H2O_near/orca/orca_end/end E -321.404027981939
  C       0.623972     -0.788660      0.356607
  H       0.355088     -1.715808     -0.124828
  H       0.632200      0.157775     -0.168199
  H       2.158773     -0.952807      0.404325
  N       0.284746     -0.707500      1.693730
  O       0.328705      0.389115      2.284638
  O      -0.021331     -1.740823      2.320612
  H       3.385558     -2.197321      0.148549
  O       3.254914     -1.310346      0.547144
  H       3.928215     -0.690164      0.196684
10
Coordinates from ORCA-job /home/rudenko/mopac_kie/for_orca/CH3NO2_H2O_near/orca/orca_end/end E -321.408485971777
  C       0.636027     -0.793323      0.344463
  H       0.300789     -1.698877     -0.133922
  H       0.622320      0.154770     -0.183728
  H       2.109097     -1.000104      0.417872
  N       0.297458     -0.705930      1.696401
  O       0.371844      0.377412      2.284083
  O      -0.026434     -1.724459      2.315844
  H       3.439630     -2.195399      0.151913
  O       3.266097     -1.315111      0.542463
  H       3.914012     -0.655519      0.223872
10
Coordinates from ORCA-job /home/rudenko/mopac_kie/for_orca/CH3NO2_H2O_near/orca/orca_end/end E -321.413763095275
  C       0.650509     -0.790020      0.349050
  H       0.298174     -1.703591     -0.139328
  H       0.596651      0.160883     -0.170628
  H       2.057134     -0.969926      0.409333
  N       0.292276     -0.703356      1.705931
  O       0.363351      0.422901      2.276999
  O      -0.024778     -1.768726      2.309557
  H       3.465636     -2.184114      0.155271
  O       3.286979     -1.320491      0.549271
  H       3.944908     -0.700100      0.213804
10
Coordinates from ORCA-job /home/rudenko/mopac_kie/for_orca/CH3NO2_H2O_near/orca/orca_end/end E -321.419924051100
  C       0.667226     -0.795938      0.340672
  H       0.254278     -1.691947     -0.142915
  H       0.584526      0.160079     -0.174114
  H       2.001295     -1.008632      0.418083
  N       0.300860     -0.700396      1.709033
  O       0.397113      0.430927      2.271060
  O      -0.034746     -1.767256      2.304372
  H       3.520206     -2.176143      0.150855
  O       3.298607     -1.326470      0.541199
  H       3.941475     -0.680765      0.241016
10
Coordinates from ORCA-job /home/rudenko/mopac_kie/for_orca/CH3NO2_H2O_near/orca/orca_end/end E -321.425470159147
  C       0.685517     -0.804301      0.331815
  H       0.211654     -1.679431     -0.144632
  H       0.573678      0.157963     -0.177675
  H       1.947257     -1.048219      0.424701
  N       0.311579     -0.698189      1.711067
  O       0.434275      0.437945      2.263310
  O      -0.043848     -1.765465      2.298942
  H       3.568875     -2.164426      0.146345
  O       3.306433     -1.330438      0.532721
  H       3.935421     -0.661980      0.272666
10
Coordinates from ORCA-job /home/rudenko/mopac_kie/for_orca/CH3NO2_H2O_near/orca/orca_end/end E -321.430462217041
  C       0.711068     -0.824874      0.314607
  H       0.152543     -1.648913     -0.148625
  H       0.568349      0.148794     -0.189523
  H       1.880949     -1.102071      0.433786
  N       0.335321     -0.704512      1.710183
  O       0.511638      0.429502      2.250180
  O      -0.059369     -1.761771      2.289007
  H       3.610179     -2.132822      0.162669
  O       3.312171     -1.323953      0.538774
  H       3.907991     -0.635922      0.298202
10
Coordinates from ORCA-job /home/rudenko/mopac_kie/for_orca/CH3NO2_H2O_near/orca/orca_end/end E -321.432559363028
  C       0.728344     -0.839129      0.302028
  H       0.077150     -1.630562     -0.155171
  H       0.580364      0.144455     -0.190101
  H       1.834105     -1.180521      0.472462
  N       0.341553     -0.705288      1.706703
  O       0.592940      0.410080      2.248112
  O      -0.118546     -1.734616      2.274899
  H       3.699206     -2.132678      0.168289
  O       3.329936     -1.324903      0.536132
  H       3.865787     -0.563376      0.295906
10
Coordinates from ORCA-job /home/rudenko/mopac_kie/for_orca/CH3NO2_H2O_near/orca/orca_end/end E -321.432590420433
  C       0.721134     -0.864163      0.283311
  H      -0.013015     -1.567924     -0.156614
  H       0.541160      0.115664     -0.206631
  H       1.857132     -1.221775      0.482058
  N       0.334369     -0.714286      1.711500
  O       0.646366      0.353832      2.249838
  O      -0.174205     -1.687333      2.276374
  H       3.752500     -2.100789      0.185533
  O       3.400393     -1.316417      0.554449
  H       3.865007     -0.553350      0.279441
10
Coordinates from ORCA-job /home/rudenko/mopac_kie/for_orca/CH3NO2_H2O_near/orca/orca_end/end E -321.433625587871
  C       0.738721     -0.868266      0.311793
  H      -0.006237     -1.582565     -0.122782
  H       0.629014      0.101300     -0.188427
  H       1.822268     -1.298008      0.493601
  N       0.301857     -0.694170      1.724356
  O       0.620695      0.390704      2.275733
  O      -0.272702     -1.677811      2.263616
  H       3.828836     -2.074413      0.134674
  O       3.407085     -1.318099      0.502600
  H       3.861302     -0.535213      0.264097
10
Coordinates from ORCA-job /home/rudenko/mopac_kie/for_orca/CH3NO2_H2O_near/orca/orca_end/end E -321.434115678322
  C       0.757713     -0.862962      0.303766
  H       0.094011     -1.608717     -0.127557
  H       0.588033      0.122709     -0.167309
  H       1.827252     -1.228390      0.502835
  N       0.320967     -0.704022      1.708494
  O       0.621297      0.392086      2.261867
  O      -0.248636     -1.690807      2.259552
  H       3.757583     -2.112769      0.136446
  O       3.372118     -1.333240      0.534854
  H       3.840503     -0.530429      0.246312
10
Coordinates from ORCA-job /home/rudenko/mopac_kie/for_orca/CH3NO2_H2O_near/orca/orca_end/end E -321.435034780126
  C       0.763103     -0.881731      0.320895
  H       0.042149     -1.594756     -0.107202
  H       0.653956      0.101150     -0.164027
  H       1.829053     -1.327436      0.533295
  N       0.288928     -0.691140      1.718940
  O       0.622351      0.379693      2.282647
  O      -0.344901     -1.636708      2.250248
  H       3.847019     -2.074821      0.095949
  O       3.408518     -1.329286      0.495639
  H       3.820663     -0.501506      0.232876
10
Coordinates from ORCA-job /home/rudenko/mopac_kie/for_orca/CH3NO2_H2O_near/orca/orca_end/end E -321.436628382973
  C       0.749525     -0.887173      0.321864
  H       0.009858     -1.593356     -0.118410
  H       0.629658      0.091305     -0.172152
  H       1.837698     -1.299568      0.507480
  N       0.283909     -0.695166      1.727145
  O       0.651390      0.357039      2.299056
  O      -0.371418     -1.623939      2.250168
  H       3.868951     -2.060626      0.117795
  O       3.440206     -1.314020      0.520040
  H       3.831064     -0.531036      0.206273
10
Coordinates from ORCA-job /home/rudenko/mopac_kie/for_orca/CH3NO2_H2O_near/orca/orca_end/end E -321.437966774397
  C       0.770494     -0.907712      0.341880
  H       0.022276     -1.602294     -0.100579
  H       0.692147      0.071589     -0.151672
  H       1.834835     -1.362221      0.546019
  N       0.259739     -0.686280      1.730871
  O       0.659816      0.341826      2.319113
  O      -0.471688     -1.565993      2.226863
  H       3.909975     -2.025235      0.070098
  O       3.461936     -1.318032      0.504517
  H       3.791310     -0.502187      0.172149
10
Coordinates from ORCA-job /home/rudenko/mopac_kie/for_orca/CH3NO2_H2O_near/orca/orca_end/end E -321.441575598944
  C       0.794341     -0.927609      0.373355
  H       0.080305     -1.630739     -0.088820
  H       0.758213      0.054493     -0.118015
  H       1.839708     -1.393343      0.588098
  N       0.234474     -0.679384      1.734846
  O       0.672264      0.312868      2.350499
  O      -0.588170     -1.490617      2.187703
  H       3.942391     -1.996942      0.019902
  O       3.485513     -1.321466      0.508909
  H       3.711801     -0.483802      0.102784
10
Coordinates from ORCA-job /home/rudenko/mopac_kie/for_orca/CH3NO2_H2O_near/orca/orca_end/end E -321.445055362724
  C       0.819044     -0.952223      0.407581
  H       0.130077     -1.651963     -0.079605
  H       0.832439      0.028232     -0.086808
  H       1.830652     -1.417388      0.627705
  N       0.213494     -0.674174      1.740767
  O       0.691276      0.278583      2.378779
  O      -0.691271     -1.413644      2.141684
  H       3.970590     -1.957454     -0.023278
  O       3.516746     -1.315638      0.515480
  H       3.617792     -0.480871      0.036955
10
Coordinates from ORCA-job /home/rudenko/mopac_kie/for_orca/CH3NO2_H2O_near/orca/orca_end/end E -321.448252885480
  C       0.830659     -0.973395      0.447376
  H       0.172989     -1.669018     -0.075654
  H       0.910900     -0.004080     -0.058355
  H       1.822220     -1.437409      0.672385
  N       0.184411     -0.665221      1.749351
  O       0.696006      0.244061      2.411119
  O      -0.785692     -1.334400      2.097099
  H       4.015036     -1.921785     -0.072933
  O       3.563246     -1.303452      0.510540
  H       3.521065     -0.491841     -0.021667
10
Coordinates from ORCA-job /home/rudenko/mopac_kie/for_orca/CH3NO2_H2O_near/orca/orca_end/end E -321.450928900019
  C       0.837490     -0.997807      0.488428
  H       0.194052     -1.676760     -0.068244
  H       0.981590     -0.045662     -0.032048
  H       1.804444     -1.461191      0.727183
  N       0.151245     -0.655058      1.760524
  O       0.684564      0.215155      2.443691
  O      -0.876907     -1.254325      2.051685
  H       4.072734     -1.885773     -0.131838
  O       3.628514     -1.286942      0.484405
  H       3.453114     -0.508177     -0.064524
10
Coordinates from ORCA-job /home/rudenko/mopac_kie/for_orca/CH3NO2_H2O_near/orca/orca_end/end E -321.453151689359
  C       0.827306     -1.014788      0.527095
  H       0.205276     -1.680253     -0.063047
  H       1.022863     -0.083049     -0.008454
  H       1.791539     -1.472022      0.787096
  N       0.105472     -0.640264      1.770710
  O       0.647259      0.195282      2.481866
  O      -0.957834     -1.188455      2.018911
  H       4.141846     -1.865737     -0.197308
  O       3.714231     -1.275548      0.442391
  H       3.432883     -0.531707     -0.100000
10
Coordinates from ORCA-job /home/rudenko/mopac_kie/for_orca/CH3NO2_H2O_near/orca/orca_end/end E -321.454540113179
  C       0.809434     -1.038015      0.533179
  H       0.145157     -1.666856     -0.055078
  H       1.031119     -0.117511     -0.011524
  H       1.745257     -1.499216      0.817413
  N       0.091147     -0.636834      1.776751
  O       0.659968      0.163431      2.504846
  O      -1.005033     -1.131010      2.005376
  H       4.234517     -1.838692     -0.205563
  O       3.778865     -1.255049      0.416757
  H       3.440411     -0.536790     -0.122897
10
Coordinates from ORCA-job /home/rudenko/mopac_kie/for_orca/CH3NO2_H2O_near/orca/orca_end/end E -321.455465420090
  C       0.799157     -1.024940      0.582053
  H       0.207388     -1.680650     -0.042137
  H       1.016059     -0.103161      0.037826
  H       1.754424     -1.464860      0.892977
  N       0.027484     -0.624266      1.789112
  O       0.538230      0.196608      2.537816
  O      -1.069745     -1.137255      1.977133
  H       4.267629     -1.877301     -0.304094
  O       3.870157     -1.285837      0.346963
  H       3.520057     -0.554878     -0.158390
10
Coordinates from ORCA-job /home/rudenko/mopac_kie/for_orca/CH3NO2_H2O_near/orca/orca_end/end E -321.456096292139
  C       0.757301     -1.036509      0.557415
  H       0.110762     -1.672468     -0.033137
  H       0.994090     -0.120715      0.015984
  H       1.703592     -1.499985      0.877504
  N       0.031709     -0.624104      1.789168
  O       0.591502      0.156211      2.548607
  O      -1.081791     -1.092192      1.995647
  H       4.363819     -1.847522     -0.264067
  O       3.912851     -1.264526      0.352410
  H       3.547004     -0.554730     -0.180271
10
Coordinates from ORCA-job /home/rudenko/mopac_kie/for_orca/CH3NO2_H2O_near/orca/orca_end/end E -321.456646955820
  C       0.767598     -1.023481      0.599178
  H       0.164442     -1.689796     -0.005634
  H       0.997573     -0.101606      0.062727
  H       1.690491     -1.477776      0.952746
  N      -0.016559     -0.615411      1.794116
  O       0.498604      0.178540      2.572162
  O      -1.131249     -1.100176      1.949145
  H       4.388738     -1.874987     -0.344074
  O       3.967343     -1.290554      0.295650
  H       3.603858     -0.561293     -0.216757
10
Coordinates from ORCA-job /home/rudenko/mopac_kie/for_orca/CH3NO2_H2O_near/orca/orca_end/end E -321.456893624049
  C       0.774358     -1.006219      0.649952
  H       0.226194     -1.704580      0.025273
  H       0.989116     -0.080519      0.117888
  H       1.694207     -1.435963      1.036721
  N      -0.077318     -0.610260      1.803228
  O       0.380198      0.200195      2.594961
  O      -1.190238     -1.107579      1.900196
  H       4.416082     -1.906763     -0.440005
  O       4.040320     -1.326092      0.230536
  H       3.677921     -0.578759     -0.259491
10
Coordinates from ORCA-job /home/rudenko/mopac_kie/for_orca/CH3NO2_H2O_near/orca/orca_end/end E -321.456947156510
  C       0.748602     -1.014700      0.634902
  H       0.165571     -1.707189      0.041220
  H       1.007192     -0.104991      0.098724
  H       1.643114     -1.480132      1.036877
  N      -0.076177     -0.608899      1.806555
  O       0.424033      0.169149      2.602495
  O      -1.207498     -1.058867      1.906192
  H       4.476840     -1.876945     -0.419391
  O       4.061876     -1.300392      0.233689
  H       3.687287     -0.573574     -0.282003
10
Coordinates from ORCA-job /home/rudenko/mopac_kie/for_orca/CH3NO2_H2O_near/orca/orca_end/end E -321.457059482132
  C       0.750702     -0.998638      0.666101
  H       0.212169     -1.708096      0.051400
  H       0.989792     -0.086611      0.126717
  H       1.662275     -1.429070      1.082394
  N      -0.119950     -0.603701      1.808811
  O       0.344574      0.186268      2.618364
  O      -1.235534     -1.089950      1.887872
  H       4.481522     -1.910494     -0.477314
  O       4.102721     -1.331125      0.196383
  H       3.742568     -0.585123     -0.301469
10
Coordinates from ORCA-job /home/rudenko/mopac_kie/for_orca/CH3NO2_H2O_near/orca/orca_end/end E -321.457080293405
  C       0.753242     -0.996274      0.677871
  H       0.225820     -1.709400      0.055751
  H       0.986995     -0.081713      0.138019
  H       1.664352     -1.417153      1.097695
  N      -0.130715     -0.605383      1.813268
  O       0.316802      0.193299      2.621545
  O      -1.247747     -1.093444      1.878566
  H       4.484881     -1.918608     -0.497176
  O       4.117080     -1.339471      0.182095
  H       3.760129     -0.588394     -0.308375
10
Coordinates from ORCA-job /home/rudenko/mopac_kie/for_orca/CH3NO2_H2O_near/orca/orca_end/end E -321.457085199052
  C       0.750633     -0.995276      0.678968
  H       0.222906     -1.709414      0.058187
  H       0.984502     -0.080764      0.138324
  H       1.660241     -1.414847      1.101802
  N      -0.134728     -0.604872      1.814140
  O       0.312358      0.192601      2.624047
  O      -1.251256     -1.093857      1.878657
  H       4.491777     -1.920548     -0.500414
  O       4.124289     -1.340620      0.178355
  H       3.770117     -0.588943     -0.312805
10
Coordinates from ORCA-job /home/rudenko/mopac_kie/for_orca/CH3NO2_H2O_near/orca/orca_end/end E -321.457086892963
  C       0.745611     -0.991231      0.682433
  H       0.220953     -1.708162      0.062590
  H       0.975811     -0.075917      0.141302
  H       1.657773     -1.404139      1.107959
  N      -0.143473     -0.605284      1.816447
  O       0.298556      0.194013      2.627563
  O      -1.257462     -1.100633      1.879436
  H       4.502098     -1.928600     -0.508372
  O       4.138106     -1.346233      0.170400
  H       3.792867     -0.590353     -0.320496
10
Coordinates from ORCA-job /home/rudenko/mopac_kie/for_orca/CH3NO2_H2O_near/orca/orca_end/end E -321.457090227329
  C       0.744241     -0.991301      0.679363
  H       0.216533     -1.707738      0.061221
  H       0.974745     -0.075985      0.137969
  H       1.655260     -1.405356      1.104921
  N      -0.140869     -0.605910      1.816764
  O       0.303097      0.193491      2.626685
  O      -1.254684     -1.101745      1.883008
  H       4.500828     -1.928938     -0.504311
  O       4.136965     -1.344768      0.172760
  H       3.794725     -0.588290     -0.319120
10
Coordinates from ORCA-job /home/rudenko/mopac_kie/for_orca/CH3NO2_H2O_near/orca/orca_end/end E -321.457094915156
  C       0.744416     -0.989228      0.678273
  H       0.218352     -1.706908      0.060457
  H       0.971164     -0.072913      0.137227
  H       1.657413     -1.400051      1.102250
  N      -0.140183     -0.607124      1.816865
  O       0.301427      0.194876      2.625429
  O      -1.251491     -1.108163      1.885528
  H       4.495375     -1.932905     -0.503312
  O       4.135704     -1.346619      0.174024
  H       3.798664     -0.587504     -0.317482
10
Coordinates from ORCA-job /home/rudenko/mopac_kie/for_orca/CH3NO2_H2O_near/orca/orca_end/end E -321.457145023570
  C       0.750941     -0.968768      0.662135
  H       0.237326     -1.699073      0.048946
  H       0.940350     -0.043417      0.123589
  H       1.684678     -1.350705      1.067190
  N      -0.124400     -0.620597      1.815891
  O       0.295278      0.207173      2.609719
  O      -1.208756     -1.173233      1.912583
  H       4.423452     -1.969558     -0.483087
  O       4.107714     -1.360757      0.195785
  H       3.824256     -0.577606     -0.293491
10
Coordinates from ORCA-job /home/rudenko/mopac_kie/for_orca/CH3NO2_H2O_near/orca/orca_end/end E -321.457199483888
  C       0.769546     -0.937673      0.643668
  H       0.282156     -1.689777      0.036142
  H       0.905836     -0.002418      0.107273
  H       1.728577     -1.275130      1.030230
  N      -0.102349     -0.639430      1.811367
  O       0.273790      0.224539      2.588154
  O      -1.141081     -1.267800      1.939011
  H       4.298230     -2.019599     -0.459351
  O       4.058869     -1.380876      0.223093
  H       3.857265     -0.568376     -0.260325
10
Coordinates from ORCA-job /home/rudenko/mopac_kie/for_orca/CH3NO2_H2O_near/orca/orca_end/end E -321.457205831705
  C       0.795717     -0.899574      0.635096
  H       0.356383     -1.683873      0.031561
  H       0.873280      0.042192      0.098250
  H       1.776689     -1.178071      1.020462
  N      -0.089873     -0.658593      1.804635
  O       0.219074      0.243725      2.567786
  O      -1.069319     -1.372051      1.951918
  H       4.143117     -2.071794     -0.450430
  O       4.012742     -1.407589      0.237200
  H       3.913029     -0.570913     -0.237215
10
Coordinates from ORCA-job /home/rudenko/mopac_kie/for_orca/CH3NO2_H2O_near/orca/orca_end/end E -321.457240718414
  C       0.775907     -0.917390      0.643434
  H       0.313768     -1.688831      0.039726
  H       0.882957      0.020099      0.102985
  H       1.743695     -1.224115      1.031925
  N      -0.108326     -0.646793      1.812601
  O       0.238182      0.232417      2.586755
  O      -1.122192     -1.313661      1.945105
  H       4.244550     -2.048002     -0.464794
  O       4.058517     -1.396328      0.222392
  H       3.903781     -0.573936     -0.260871
10
Coordinates from ORCA-job /home/rudenko/mopac_kie/for_orca/CH3NO2_H2O_near/orca/orca_end/end E -321.457208996545
  C       0.765973     -0.918941      0.643335
  H       0.312300     -1.690633      0.033344
  H       0.872400      0.019045      0.103246
  H       1.737484     -1.227189      1.038990
  N      -0.111746     -0.645148      1.814808
  O       0.243086      0.229874      2.589657
  O      -1.130482     -1.304709      1.948232
  H       4.260029     -2.046175     -0.468170
  O       4.071661     -1.396147      0.220230
  H       3.910135     -0.576517     -0.264413
10
Coordinates from ORCA-job /home/rudenko/mopac_kie/for_orca/CH3NO2_H2O_near/orca/orca_end/end E -321.457250593208
  C       0.774026     -0.914675      0.643075
  H       0.316931     -1.688850      0.038716
  H       0.875675      0.022990      0.101382
  H       1.743772     -1.217795      1.033197
  N      -0.109599     -0.647622      1.814070
  O       0.235464      0.231250      2.588874
  O      -1.122594     -1.316651      1.946018
  H       4.241946     -2.051955     -0.464620
  O       4.064046     -1.397006      0.221890
  H       3.911172     -0.576225     -0.263343
10
Coordinates from ORCA-job /home/rudenko/mopac_kie/for_orca/CH3NO2_H2O_near/orca/orca_end/end E -321.457255765548
  C       0.774984     -0.912945      0.642285
  H       0.318758     -1.688453      0.038785
  H       0.873439      0.024692      0.099891
  H       1.745569     -1.213969      1.030955
  N      -0.108681     -0.648516      1.814222
  O       0.235523      0.229768      2.590024
  O      -1.120770     -1.319188      1.945583
  H       4.236996     -2.054246     -0.461636
  O       4.064354     -1.396373      0.223383
  H       3.910668     -0.577310     -0.264231
10
Coordinates from ORCA-job /home/rudenko/mopac_kie/for_orca/CH3NO2_H2O_near/orca/orca_end/end E -321.457283004483
  C       0.778361     -0.903435      0.635175
  H       0.325985     -1.685588      0.036411
  H       0.856333      0.034155      0.088864
  H       1.755326     -1.193329      1.013239
  N      -0.100298     -0.654218      1.815308
  O       0.247027      0.213957      2.600760
  O      -1.111834     -1.327541      1.941592
  H       4.212932     -2.067618     -0.434518
  O       4.070895     -1.387120      0.235321
  H       3.896113     -0.585805     -0.272893
10
Coordinates from ORCA-job /home/rudenko/mopac_kie/for_orca/CH3NO2_H2O_near/orca/orca_end/end E -321.457303384772
  C       0.777147     -0.897262      0.626787
  H       0.325663     -1.682658      0.031077
  H       0.837311      0.041004      0.079018
  H       1.761162     -1.179243      0.992472
  N      -0.090792     -0.659168      1.816469
  O       0.269732      0.192961      2.613532
  O      -1.107998     -1.325287      1.937721
  H       4.204294     -2.077338     -0.401840
  O       4.082288     -1.373501      0.247437
  H       3.872035     -0.596047     -0.283413
10
Coordinates from ORCA-job /home/rudenko/mopac_kie/for_orca/CH3NO2_H2O_near/orca/orca_end/end E -321.457327577830
  C       0.765683     -0.892409      0.612736
  H       0.308739     -1.677641      0.021038
  H       0.805446      0.048384      0.066798
  H       1.758969     -1.167693      0.959055
  N      -0.078816     -0.665181      1.819775
  O       0.310995      0.160126      2.631475
  O      -1.109123     -1.311550      1.938637
  H       4.218669     -2.086997     -0.354315
  O       4.106421     -1.352149      0.261685
  H       3.843857     -0.611430     -0.297625
10
Coordinates from ORCA-job /home/rudenko/mopac_kie/for_orca/CH3NO2_H2O_near/orca/orca_end/end E -321.457346032838
  C       0.758189     -0.889306      0.608802
  H       0.302155     -1.676034      0.019015
  H       0.788725      0.054078      0.066695
  H       1.757047     -1.158084      0.948358
  N      -0.078237     -0.668143      1.821368
  O       0.320333      0.149192      2.637339
  O      -1.111748     -1.308749      1.940310
  H       4.229016     -2.094569     -0.338604
  O       4.120724     -1.347040      0.262349
  H       3.844636     -0.617885     -0.306371
10
Coordinates from ORCA-job /home/rudenko/mopac_kie/for_orca/CH3NO2_H2O_near/orca/orca_end/end E -321.457331838707
  C       0.730844     -0.890486      0.579219
  H       0.245795     -1.667369      0.000829
  H       0.755457      0.057733      0.045003
  H       1.731138     -1.167550      0.896993
  N      -0.059085     -0.675777      1.826775
  O       0.387892      0.114563      2.644645
  O      -1.105562     -1.289063      1.967385
  H       4.261547     -2.092832     -0.284716
  O       4.140584     -1.324793      0.286523
  H       3.842230     -0.620965     -0.303395
10
Coordinates from ORCA-job /home/rudenko/mopac_kie/for_orca/CH3NO2_H2O_near/orca/orca_end/end E -321.457373249424
  C       0.740997     -0.886550      0.593786
  H       0.280240     -1.672251      0.007720
  H       0.753495      0.063983      0.063994
  H       1.749546     -1.144840      0.911284
  N      -0.070553     -0.675717      1.825566
  O       0.353748      0.125000      2.645498
  O      -1.111803     -1.299657      1.953178
  H       4.247679     -2.103409     -0.297821
  O       4.144361     -1.333203      0.272752
  H       3.843131     -0.629896     -0.316697
10
Coordinates from ORCA-job /home/rudenko/mopac_kie/for_orca/CH3NO2_H2O_near/orca/orca_end/end E -321.457383255557
  C       0.749566     -0.882425      0.595291
  H       0.292812     -1.672575      0.011068
  H       0.761111      0.065673      0.061052
  H       1.756770     -1.138379      0.918819
  N      -0.069318     -0.676273      1.823750
  O       0.342143      0.132286      2.642474
  O      -1.102177     -1.315246      1.950530
  H       4.219622     -2.107330     -0.301362
  O       4.132141     -1.336783      0.272671
  H       3.848170     -0.625488     -0.315032
