!  NUMFREQ B3LYP def2-TZVP CPCM D3 
%pal nprocs 102 end
%cpcm epsilon 78.4 end 
*xyz -1 1 
C   -2.34304228579715 0.61256991173244 -0.62737752246131
C   -1.06371149866044 0.79663267366164 -0.12825243894238
C   -0.0724165626182 -0.15349159090067 -0.38678679585458
C   -0.4135578755999 -1.2806955947633 -1.12989176084609
C   -1.71116000274086 -1.43110713506563 -1.60323607114695
C   -2.70391480925767 -0.49803249152475 -1.37234213957706
H   -0.84145162276959 1.66990496629506 0.46308775827099
H   0.3156307298918 -2.04367385016507 -1.35093997810238
H   -3.7048348182502 -0.62867168453229 -1.74802766500291
N   -2.04519199130523 -2.62793766355929 -2.3893919685091
O   -3.18418302546663 -2.73213507713 -2.82149420323377
O   -1.16697883559121 -3.45924629790181 -2.57067283529784
C   1.30585487912383 0.02555427995277 0.17399803891102
H   1.16818297999111 0.46023014232876 1.3249756393872 M = 2
C   2.15781417872307 -1.22249356323829 0.28895556806808
H   3.03920501563429 -1.02286217935867 0.89404136018501
H   2.48684831570905 -1.60624292771119 -0.67974003900129
H   1.57460148444579 -1.99641210195836 0.78871418254514
N   2.02245994485646 1.12625488937431 -0.47694785850037
O   3.2546513721574 1.10933842811659 -0.46826417951407
O   1.38420966782794 2.07900699740791 -0.93421773772579
O   3.51702147162086 1.80038392105833 3.18241837019653
H   3.77156649212694 1.40314681856697 4.02228938877933
N   -3.36767045402275 1.63110099339812 -0.35158376867012
O   -4.50958916145122 1.41380480857802 -0.73054303298234
O   -3.02553370336922 2.64439648242092 0.23968587765773
H   0.46509799717569 1.59754729269265 2.7046734692479
H   2.5843679180722 1.45691922093126 3.00093826987228
O   1.10572419954379 0.87621033129354 2.68593207224711
*
