41
	Energy:     -70.6869800
C         -0.61264        1.01134        0.56696
C          0.76951        0.96814        0.74522
C          1.49328       -0.17895        0.40311
C          0.83396       -1.28586       -0.12419
C         -0.55462       -1.23367       -0.28502
C         -1.28961       -0.09051        0.05501
H         -1.16528        1.91722        0.83178
H          1.28798        1.84198        1.15939
H          1.38935       -2.18925       -0.40941
H         -2.37719       -0.06080       -0.07962
N         -1.23997       -2.39057       -0.80420
O         -2.45796       -2.36364       -0.92172
O         -0.58652       -3.37927       -1.11417
C          2.98072       -0.19358        0.62428
C          3.47325       -1.48618        1.26534
H          4.54394       -1.44164        1.51614
H          3.32730       -2.36949        0.62740
H          2.93910       -1.67141        2.21220
N          3.70027       -0.00126       -0.67826
O          4.91210        0.15375       -0.64641
O          3.07179        0.00614       -1.72226
H          3.28605        0.68271        1.28689
C          1.49815        0.16393        7.93527
C          2.68250        0.63229        8.67271
C          3.38033        1.82747        8.00533
C          3.43515        1.62701        6.48246
N          2.08003        1.48158        5.89927
C          1.40530        0.28387        6.46364
H          0.71205       -0.33654        8.46776
H          2.42509        0.89091        9.72278
H          3.40454       -0.21609        8.76157
H          4.39913        1.95606        8.41379
H          2.84083        2.76329        8.24569
H          3.93482        2.48698        5.98750
H          4.02886        0.72106        6.23099
H          1.52301        2.31702        6.11325
H          0.34463        0.28829        6.11834
H          1.87029       -0.62144        5.99172
H          2.49820        1.48304        3.96029
H          2.21271        2.62157        2.98315
O          2.71631        1.80843        3.06237
