10
Coordinates from ORCA-job neb E -321.457353848964
  C      -0.433946      0.255398     -0.286012
  H       0.130059     -0.184752     -1.100834
  H      -0.299845      1.335055     -0.254983
  H      -0.188313     -0.179745      0.677420
  N      -1.883616      0.021853     -0.541560
  O      -2.643012      0.083475      0.414356
  O      -2.236784     -0.192437     -1.690065
  H       2.445313     -1.094192      0.603737
  O       2.478687     -0.442163      1.314868
  H       2.631458      0.397509      0.863072
10
Coordinates from ORCA-job neb E -321.457361357321
  C      -0.437607      0.258004     -0.290122
  H       0.124729     -0.178715     -1.107372
  H      -0.305652      1.338225     -0.257060
  H      -0.187483     -0.178687      0.670752
  N      -1.888075      0.021494     -0.542145
  O      -2.646196      0.084553      0.414006
  O      -2.244412     -0.196660     -1.688806
  H       2.454987     -1.097209      0.609831
  O       2.488532     -0.445373      1.321117
  H       2.641177      0.394368      0.869799
10
Coordinates from ORCA-job neb E -321.457363719811
  C      -0.438122      0.263608     -0.296900
  H       0.120927     -0.164412     -1.120538
  H      -0.312133      1.344637     -0.257914
  H      -0.178128     -0.177830      0.658675
  N      -1.889503      0.019786     -0.540503
  O      -2.643637      0.085171      0.417860
  O      -2.251526     -0.208880     -1.683311
  H       2.456108     -1.102320      0.618308
  O       2.490794     -0.449218      1.328349
  H       2.645220      0.389459      0.875974
10
Coordinates from ORCA-job neb E -321.457362349442
  C      -0.435616      0.273093     -0.309321
  H       0.118064     -0.136778     -1.145660
  H      -0.323614      1.355128     -0.257669
  H      -0.156425     -0.177435      0.636684
  N      -1.887081      0.012341     -0.535337
  O      -2.632516      0.087774      0.428765
  O      -2.259572     -0.230203     -1.672075
  H       2.447942     -1.111117      0.632742
  O       2.484846     -0.454205      1.339133
  H       2.643971      0.381401      0.882738
10
Coordinates from ORCA-job neb E -321.457358925282
  C      -0.446739      0.265567     -0.307290
  H       0.107142     -0.155203     -1.139750
  H      -0.324705      1.347702     -0.263495
  H      -0.176498     -0.183570      0.643366
  N      -1.900592      0.019722     -0.541765
  O      -2.649907      0.090661      0.419879
  O      -2.270970     -0.210186     -1.683306
  H       2.476453     -1.106098      0.634009
  O       2.521107     -0.454885      1.345630
  H       2.664709      0.386290      0.892722
10
Coordinates from ORCA-job neb E -321.457367308138
  C      -0.444527      0.262984     -0.303150
  H       0.110529     -0.163453     -1.130720
  H      -0.317905      1.344059     -0.262969
  H      -0.181198     -0.182405      0.649973
  N      -1.897569      0.022003     -0.542059
  O      -2.648507      0.088448      0.418556
  O      -2.264126     -0.205634     -1.684304
  H       2.471495     -1.102075      0.625996
  O       2.514380     -0.452998      1.339392
  H       2.657428      0.389070      0.889284
10
Coordinates from ORCA-job neb E -321.457371393066
  C      -0.439237      0.266643     -0.306739
  H       0.113991     -0.153167     -1.138974
  H      -0.317687      1.348141     -0.261285
  H      -0.168917     -0.181762      0.643225
  N      -1.892228      0.018868     -0.538659
  O      -2.639228      0.087738      0.424973
  O      -2.262780     -0.215683     -1.678025
  H       2.458008     -1.104276      0.627602
  O       2.500932     -0.453712      1.339664
  H       2.647147      0.387210      0.888218
10
Coordinates from ORCA-job neb E -321.457375668629
  C      -0.432479      0.269037     -0.310203
  H       0.118297     -0.144856     -1.146951
  H      -0.315136      1.350771     -0.260005
  H      -0.155305     -0.182109      0.636469
  N      -1.885683      0.015681     -0.534663
  O      -2.628267      0.087206      0.432299
  O      -2.261262     -0.223849     -1.671271
  H       2.441405     -1.104480      0.627190
  O       2.486073     -0.454114      1.339314
  H       2.632356      0.386713      0.887823
10
Coordinates from ORCA-job neb E -321.457378206760
  C      -0.429769      0.266644     -0.308818
  H       0.120481     -0.149676     -1.144721
  H      -0.309976      1.348177     -0.260120
  H      -0.154182     -0.183721      0.638647
  N      -1.883363      0.016228     -0.533922
  O      -2.625881      0.086785      0.433188
  O      -2.259304     -0.220089     -1.671080
  H       2.435354     -1.100996      0.622688
  O       2.482506     -0.453027      1.336843
  H       2.624133      0.389675      0.887294
10
Coordinates from ORCA-job neb E -321.457382026448
  C      -0.425410      0.262756     -0.307020
  H       0.123454     -0.157467     -1.141912
  H      -0.301293      1.343904     -0.260806
  H      -0.151881     -0.186670      0.641444
  N      -1.879882      0.017904     -0.532633
  O      -2.621911      0.086003      0.435018
  O      -2.256614     -0.214348     -1.670429
  H       2.425603     -1.095024      0.615372
  O       2.477712     -0.451649      1.333327
  H       2.610224      0.394590      0.887640
10
Coordinates from ORCA-job neb E -321.457383798591
  C      -0.421490      0.263278     -0.310623
  H       0.124023     -0.153879     -1.149255
  H      -0.298668      1.344465     -0.262146
  H      -0.142519     -0.188497      0.635144
  N      -1.876794      0.017450     -0.529905
  O      -2.614780      0.086105      0.440692
  O      -2.258094     -0.217925     -1.665698
  H       2.416289     -1.093416      0.614804
  O       2.472898     -0.453022      1.335106
  H       2.599136      0.395441      0.891881
10
Coordinates from ORCA-job neb E -321.457385644383
  C      -0.416465      0.267617     -0.320738
  H       0.122747     -0.139350     -1.168364
  H      -0.300528      1.349225     -0.265062
  H      -0.123550     -0.189582      0.618271
  N      -1.872554      0.013783     -0.524684
  O      -2.601549      0.087617      0.452191
  O      -2.263978     -0.230178     -1.655310
  H       2.404325     -1.094724      0.619401
  O       2.465745     -0.457654      1.342271
  H       2.585807      0.393246      0.902023
10
Coordinates from ORCA-job neb E -321.457385854641
  C      -0.411738      0.267219     -0.326844
  H       0.121822     -0.137616     -1.179044
  H      -0.295883      1.348734     -0.269403
  H      -0.112009     -0.191831      0.609139
  N      -1.868903      0.012681     -0.520878
  O      -2.591333      0.088520      0.460723
  O      -2.267871     -0.231915     -1.648634
  H       2.395068     -1.090413      0.616449
  O       2.461754     -0.460974      1.345527
  H       2.569095      0.395595      0.912966
10
Coordinates from ORCA-job neb E -321.457387031208
  C      -0.412182      0.263902     -0.324268
  H       0.121638     -0.146540     -1.173662
  H      -0.291485      1.345074     -0.270628
  H      -0.117194     -0.192930      0.614267
  N      -1.869806      0.014704     -0.521938
  O      -2.593907      0.088276      0.458672
  O      -2.267184     -0.224559     -1.651345
  H       2.398018     -1.086503      0.611354
  O       2.464809     -0.460253      1.343154
  H       2.567295      0.398829      0.914395
10
Coordinates from ORCA-job neb E -321.457386351555
  C      -0.410481      0.262910     -0.329351
  H       0.118440     -0.149963     -1.180613
  H      -0.286301      1.343697     -0.277187
  H      -0.112782     -0.193704      0.608454
  N      -1.869682      0.017772     -0.520188
  O      -2.588374      0.089174      0.464585
  O      -2.272347     -0.225256     -1.646851
  H       2.399936     -1.080804      0.605040
  O       2.465278     -0.465225      1.345976
  H       2.556313      0.401398      0.930135
10
Coordinates from ORCA-job neb E -321.457386299746
  C      -0.412514      0.268077     -0.328149
  H       0.119900     -0.138570     -1.180167
  H      -0.295000      1.349410     -0.271768
  H      -0.113083     -0.190375      0.608236
  N      -1.870102      0.015208     -0.521265
  O      -2.591217      0.087380      0.461629
  O      -2.269385     -0.233679     -1.647905
  H       2.398666     -1.089840      0.614996
  O       2.463308     -0.463106      1.346564
  H       2.569428      0.395494      0.917828
10
Coordinates from ORCA-job neb E -321.457389712417
  C      -0.409727      0.265372     -0.335704
  H       0.116502     -0.141082     -1.191690
  H      -0.291030      1.346673     -0.279616
  H      -0.103861     -0.193473      0.598438
  N      -1.868894      0.013410     -0.517551
  O      -2.583145      0.093678      0.469735
  O      -2.277672     -0.232373     -1.641473
  H       2.401253     -1.082188      0.607724
  O       2.462607     -0.469179      1.351126
  H       2.553966      0.399162      0.939010
10
Coordinates from ORCA-job neb E -321.457386307897
  C      -0.413791      0.264261     -0.326945
  H       0.119137     -0.145296     -1.177359
  H      -0.294328      1.345616     -0.273116
  H      -0.116738     -0.192391      0.611070
  N      -1.871516      0.012943     -0.521689
  O      -2.594365      0.090861      0.459553
  O      -2.271292     -0.224850     -1.650585
  H       2.405020     -1.086714      0.612106
  O       2.467770     -0.462628      1.346091
  H       2.570102      0.398197      0.920875
10
Coordinates from ORCA-job neb E -321.457392780573
  C      -0.411231      0.267941     -0.337485
  H       0.114691     -0.137184     -1.194256
  H      -0.294276      1.349364     -0.280629
  H      -0.103663     -0.191101      0.596031
  N      -1.870160      0.013494     -0.517750
  O      -2.583575      0.093909      0.470135
  O      -2.279223     -0.237452     -1.640413
  H       2.405959     -1.084411      0.609370
  O       2.462920     -0.471430      1.353116
  H       2.558558      0.396871      0.941882
10
Coordinates from ORCA-job neb E -321.457395340412
  C      -0.411767      0.261890     -0.337582
  H       0.111290     -0.152628     -1.191710
  H      -0.286087      1.342629     -0.287354
  H      -0.108740     -0.193833      0.599020
  N      -1.872412      0.017539     -0.518150
  O      -2.584851      0.096549      0.470606
  O      -2.283252     -0.226393     -1.641697
  H       2.416571     -1.074186      0.597512
  O       2.468484     -0.474341      1.352280
  H       2.550764      0.402774      0.957076
10
Coordinates from ORCA-job neb E -321.457400283130
  C      -0.413926      0.248915     -0.331635
  H       0.108368     -0.182474     -1.177998
  H      -0.272787      1.328261     -0.293352
  H      -0.123875     -0.200658      0.612001
  N      -1.876647      0.023670     -0.520938
  O      -2.592941      0.098518      0.465384
  O      -2.285173     -0.198498     -1.649887
  H       2.431439     -1.058663      0.581648
  O       2.481001     -0.472369      1.347110
  H       2.544540      0.413297      0.967669
10
Coordinates from ORCA-job neb E -321.457405383860
  C      -0.413897      0.237077     -0.332824
  H       0.102679     -0.206624     -1.176528
  H      -0.259799      1.314973     -0.303384
  H      -0.128603     -0.208808      0.613973
  N      -1.879267      0.028107     -0.520558
  O      -2.593145      0.103396      0.467456
  O      -2.292528     -0.175666     -1.651338
  H       2.444463     -1.041213      0.567016
  O       2.490464     -0.473727      1.346850
  H       2.529633      0.422485      0.989338
10
Coordinates from ORCA-job neb E -321.457410141848
  C      -0.411891      0.233933     -0.344891
  H       0.094277     -0.211444     -1.194104
  H      -0.253751      1.311272     -0.316836
  H      -0.117974     -0.212797      0.598830
  N      -1.879925      0.030349     -0.516313
  O      -2.582517      0.110363      0.479341
  O      -2.306273     -0.174952     -1.641948
  H       2.455076     -1.028858      0.559497
  O       2.491604     -0.482060      1.354657
  H       2.511375      0.424193      1.021767
10
Coordinates from ORCA-job neb E -321.457411351931
  C      -0.409898      0.235587     -0.355935
  H       0.089051     -0.205517     -1.211527
  H      -0.254202      1.313244     -0.325266
  H      -0.105462     -0.213574      0.583356
  N      -1.879206      0.029500     -0.512238
  O      -2.572067      0.115204      0.489734
  O      -2.316411     -0.182736     -1.632394
  H       2.459285     -1.024945      0.559714
  O       2.488351     -0.488812      1.362378
  H       2.500557      0.422051      1.042179
10
Coordinates from ORCA-job neb E -321.457406883289
  C      -0.406785      0.248508     -0.368910
  H       0.088264     -0.175471     -1.235042
  H      -0.267200      1.328045     -0.327129
  H      -0.083669     -0.206369      0.561558
  N      -1.874900      0.022248     -0.506703
  O      -2.557835      0.117704      0.501209
  O      -2.321867     -0.213383     -1.618242
  H       2.450210     -1.037310      0.573285
  O       2.474254     -0.496297      1.372673
  H       2.499528      0.412324      1.047300
10
Coordinates from ORCA-job neb E -321.457397081114
  C      -0.410543      0.229820     -0.344781
  H       0.093546     -0.214736     -1.194529
  H      -0.251378      1.307204     -0.316893
  H      -0.117310     -0.217530      0.598820
  N      -1.879001      0.028794     -0.515707
  O      -2.581102      0.111204      0.480120
  O      -2.307225     -0.165926     -1.642574
  H       2.454064     -1.026366      0.561539
  O       2.492496     -0.479167      1.354093
  H       2.506452      0.426704      1.019913
10
Coordinates from ORCA-job neb E -321.457399732741
  C      -0.407384      0.252341     -0.363487
  H       0.091874     -0.168950     -1.228028
  H      -0.271782      1.332308     -0.320110
  H      -0.086437     -0.202473      0.567715
  N      -1.873767      0.019351     -0.508287
  O      -2.562252      0.113938      0.495942
  O      -2.314373     -0.217849     -1.622047
  H       2.442698     -1.045414      0.578908
  O       2.472178     -0.493294      1.369301
  H       2.509245      0.410042      1.030093
10
Coordinates from ORCA-job neb E -321.457412621946
  C      -0.405432      0.265552     -0.379250
  H       0.086875     -0.142601     -1.253934
  H      -0.282678      1.346624     -0.327764
  H      -0.064470     -0.193029      0.543318
  N      -1.870754      0.014818     -0.502348
  O      -2.547133      0.117095      0.509333
  O      -2.322328     -0.249748     -1.605425
  H       2.440900     -1.052570      0.586341
  O       2.459922     -0.505821      1.381000
  H       2.505098      0.399679      1.048729
10
Coordinates from ORCA-job neb E -321.457421669206
  C      -0.405635      0.265673     -0.387413
  H       0.080520     -0.143219     -1.265216
  H      -0.281442      1.346603     -0.336819
  H      -0.058971     -0.193031      0.532981
  N      -1.872086      0.016983     -0.500143
  O      -2.541239      0.120410      0.516188
  O      -2.330912     -0.252764     -1.598923
  H       2.451868     -1.046180      0.582211
  O       2.460380     -0.513044      1.386487
  H       2.497518      0.398570      1.070648
10
Coordinates from ORCA-job neb E -321.457411538868
  C      -0.408908      0.256409     -0.376398
  H       0.081038     -0.165830     -1.246095
  H      -0.271923      1.336078     -0.334048
  H      -0.078724     -0.198998      0.551310
  N      -1.876981      0.025281     -0.505771
  O      -2.554400      0.115762      0.506268
  O      -2.326914     -0.229444     -1.611796
  H       2.460696     -1.039631      0.574778
  O       2.472451     -0.505627      1.379045
  H       2.503665      0.406000      1.062707
10
Coordinates from ORCA-job neb E -321.457432662640
  C      -0.408550      0.262863     -0.398031
  H       0.067611     -0.152566     -1.278631
  H      -0.277942      1.343235     -0.352981
  H      -0.056963     -0.193902      0.521318
  N      -1.877080      0.021196     -0.498104
  O      -2.537607      0.128876      0.523355
  O      -2.345457     -0.251062     -1.592189
  H       2.480427     -1.030955      0.571135
  O       2.466968     -0.525210      1.393653
  H       2.488593      0.397526      1.110475
10
Coordinates from ORCA-job neb E -321.457441465646
  C      -0.409729      0.261724     -0.408241
  H       0.057786     -0.155984     -1.292510
  H      -0.276593      1.341875     -0.365805
  H      -0.051000     -0.194280      0.508840
  N      -1.879467      0.022174     -0.495139
  O      -2.531756      0.136841      0.530829
  O      -2.357314     -0.252715     -1.584470
  H       2.499829     -1.018421      0.563967
  O       2.469679     -0.535845      1.399969
  H       2.478565      0.394632      1.142560
10
Coordinates from ORCA-job neb E -321.457447406742
  C      -0.412529      0.253959     -0.417421
  H       0.043555     -0.174077     -1.302899
  H      -0.268503      1.332956     -0.383122
  H      -0.051806     -0.199672      0.500095
  N      -1.885081      0.027418     -0.493422
  O      -2.529491      0.147297      0.536866
  O      -2.372885     -0.240923     -1.580013
  H       2.531777     -0.992461      0.548825
  O       2.480386     -0.547530      1.404487
  H       2.464578      0.393033      1.186603
10
Coordinates from ORCA-job neb E -321.457444142164
  C      -0.412058      0.251930     -0.411099
  H       0.048257     -0.177175     -1.293621
  H      -0.267070      1.330881     -0.377117
  H      -0.057165     -0.201727      0.508598
  N      -1.884565      0.027728     -0.495399
  O      -2.533906      0.143440      0.532272
  O      -2.367405     -0.234196     -1.585784
  H       2.523899     -0.995899      0.549698
  O       2.481140     -0.541498      1.400498
  H       2.468872      0.396516      1.171953
10
Coordinates from ORCA-job neb E -321.457446832828
  C      -0.413137      0.248312     -0.416179
  H       0.041457     -0.185136     -1.299637
  H      -0.263153      1.326661     -0.385564
  H      -0.056599     -0.204478      0.503335
  N      -1.886950      0.030301     -0.494299
  O      -2.531770      0.148638      0.535887
  O      -2.375197     -0.229320     -1.582836
  H       2.538449     -0.983108      0.542964
  O       2.485760     -0.547081      1.402862
  H       2.461140      0.395210      1.193468
10
Coordinates from ORCA-job neb E -321.457446095383
  C      -0.412538      0.242653     -0.411529
  H       0.043330     -0.195350     -1.292047
  H      -0.257157      1.320328     -0.383544
  H      -0.062356     -0.209789      0.510526
  N      -1.887316      0.033068     -0.495841
  O      -2.534802      0.145973      0.533272
  O      -2.373278     -0.215804     -1.587925
  H       2.535753     -0.978491      0.539015
  O       2.489236     -0.542277      1.399158
  H       2.459128      0.399689      1.188915
10
Coordinates from ORCA-job neb E -321.457448270528
  C      -0.410657      0.240511     -0.414125
  H       0.042057     -0.198477     -1.295742
  H      -0.253027      1.317875     -0.386762
  H      -0.058892     -0.212514      0.507073
  N      -1.886180      0.034825     -0.494385
  O      -2.530085      0.145816      0.537165
  O      -2.375801     -0.212688     -1.585118
  H       2.533841     -0.972749      0.536395
  O       2.488148     -0.542813      1.399766
  H       2.450595      0.400214      1.195734
10
Coordinates from ORCA-job neb E -321.457452446821
  C      -0.409562      0.245761     -0.423064
  H       0.038150     -0.187813     -1.309864
  H      -0.257456      1.323854     -0.392841
  H      -0.047301     -0.208246      0.493714
  N      -1.884447      0.031738     -0.490590
  O      -2.521375      0.150947      0.544368
  O      -2.381060     -0.227943     -1.575292
  H       2.536240     -0.972472      0.538527
  O       2.482274     -0.550311      1.405276
  H       2.444536      0.394485      1.209767
10
Coordinates from ORCA-job neb E -321.457452417177
  C      -0.409521      0.243580     -0.422005
  H       0.037978     -0.191838     -1.307985
  H      -0.255336      1.321438     -0.393116
  H      -0.049145     -0.210325      0.495477
  N      -1.884801      0.032505     -0.490913
  O      -2.522347      0.151668      0.543646
  O      -2.381163     -0.223842     -1.576517
  H       2.537209     -0.968959      0.535724
  O       2.483347     -0.549815      1.403922
  H       2.443779      0.395588      1.211765
