10
Coordinates from ORCA-job /home/rudenko/mop_saddle_orca_4_serv/for_orca/CH3NO2_H2O_near/orca/orca_start/start E -321.451587640048
  C       0.438946     -0.776398      0.556222
  H       1.001031     -1.429253     -0.145137
  H       0.926679      0.223342      0.534747
  H       0.562776     -1.181548      1.578691
  N      -0.965427     -0.662564      0.185667
  O      -1.797889     -0.488010      1.065592
  O      -1.281845     -0.736813     -0.993449
  H       3.768871     -1.652354      1.371664
  O       2.957255     -1.180605      1.588338
  H       3.175751     -0.253459      1.429243
10
Coordinates from ORCA-job /home/rudenko/mop_saddle_orca_4_serv/for_orca/CH3NO2_H2O_near/orca/orca_start/start E -321.454425236832
  C       0.431536     -0.781317      0.556336
  H       0.968064     -1.418042     -0.138606
  H       0.892764      0.206513      0.531154
  H       0.537810     -1.175308      1.559791
  N      -0.982167     -0.667327      0.181026
  O      -1.803608     -0.477748      1.069334
  O      -1.277173     -0.729862     -1.005408
  H       3.816493     -1.651905      1.382734
  O       2.999641     -1.185452      1.601519
  H       3.202789     -0.257214      1.433699
10
Coordinates from ORCA-job /home/rudenko/mop_saddle_orca_4_serv/for_orca/CH3NO2_H2O_near/orca/orca_start/start E -321.455505665554
  C       0.426678     -0.777447      0.556871
  H       0.942375     -1.412397     -0.146862
  H       0.869039      0.213383      0.528198
  H       0.510036     -1.169503      1.558306
  N      -0.996376     -0.655637      0.174951
  O      -1.815493     -0.483622      1.066814
  O      -1.280576     -0.737766     -1.011618
  H       3.858824     -1.656186      1.393645
  O       3.040173     -1.193672      1.614648
  H       3.231467     -0.264815      1.436625
10
Coordinates from ORCA-job /home/rudenko/mop_saddle_orca_4_serv/for_orca/CH3NO2_H2O_near/orca/orca_start/start E -321.456133781977
  C       0.424726     -0.789126      0.561283
  H       0.920779     -1.424022     -0.157582
  H       0.839740      0.213973      0.526527
  H       0.480981     -1.179963      1.566032
  N      -1.011264     -0.668985      0.171689
  O      -1.824305     -0.461986      1.058528
  O      -1.280129     -0.716413     -1.018381
  H       3.905076     -1.647632      1.403901
  O       3.081016     -1.196815      1.627305
  H       3.249528     -0.266693      1.432275
10
Coordinates from ORCA-job /home/rudenko/mop_saddle_orca_4_serv/for_orca/CH3NO2_H2O_near/orca/orca_start/start E -321.456548618188
  C       0.411429     -0.782005      0.556967
  H       0.905185     -1.420518     -0.167072
  H       0.826018      0.225421      0.522141
  H       0.461178     -1.176413      1.564823
  N      -1.025756     -0.657061      0.165800
  O      -1.845208     -0.470731      1.051209
  O      -1.301598     -0.724207     -1.021691
  H       3.946300     -1.652830      1.417421
  O       3.122015     -1.204043      1.642833
  H       3.286585     -0.275274      1.439147
10
Coordinates from ORCA-job /home/rudenko/mop_saddle_orca_4_serv/for_orca/CH3NO2_H2O_near/orca/orca_start/start E -321.456750193594
  C       0.395309     -0.780128      0.552223
  H       0.888212     -1.418660     -0.172781
  H       0.808132      0.228220      0.517722
  H       0.441410     -1.176527      1.559903
  N      -1.041602     -0.655442      0.160799
  O      -1.862805     -0.469613      1.045066
  O      -1.319530     -0.720864     -1.026526
  H       3.989582     -1.654627      1.432000
  O       3.164282     -1.208631      1.659198
  H       3.323159     -0.281388      1.443973
10
Coordinates from ORCA-job /home/rudenko/mop_saddle_orca_4_serv/for_orca/CH3NO2_H2O_near/orca/orca_start/start E -321.456883022797
  C       0.378185     -0.778130      0.547705
  H       0.870516     -1.415880     -0.177211
  H       0.789935      0.229723      0.514412
  H       0.420274     -1.176347      1.554205
  N      -1.057429     -0.653610      0.155614
  O      -1.879243     -0.469004      1.040050
  O      -1.334617     -0.717159     -1.032250
  H       4.033289     -1.656281      1.446811
  O       3.207006     -1.213006      1.676541
  H       3.358232     -0.287968      1.445700
10
Coordinates from ORCA-job /home/rudenko/mop_saddle_orca_4_serv/for_orca/CH3NO2_H2O_near/orca/orca_start/start E -321.456953009598
  C       0.359970     -0.776143      0.543182
  H       0.853601     -1.413132     -0.181430
  H       0.772391      0.231261      0.511711
  H       0.400122     -1.175922      1.549150
  N      -1.074272     -0.651878      0.150106
  O      -1.896429     -0.468566      1.034605
  O      -1.349767     -0.713144     -1.038293
  H       4.077068     -1.658180      1.461584
  O       3.250365     -1.217042      1.694240
  H       3.393099     -0.294915      1.446722
10
Coordinates from ORCA-job /home/rudenko/mop_saddle_orca_4_serv/for_orca/CH3NO2_H2O_near/orca/orca_start/start E -321.456970962111
  C       0.350019     -0.775187      0.541405
  H       0.844320     -1.411515     -0.183392
  H       0.762637      0.232194      0.511265
  H       0.388872     -1.175606      1.547235
  N      -1.083928     -0.650582      0.146760
  O      -1.906707     -0.468561      1.030715
  O      -1.357446     -0.710781     -1.041987
  H       4.101669     -1.659398      1.469658
  O       3.275102     -1.219120      1.704363
  H       3.411611     -0.299106      1.445557
10
Coordinates from ORCA-job /home/rudenko/mop_saddle_orca_4_serv/for_orca/CH3NO2_H2O_near/orca/orca_start/start E -321.456975483034
  C       0.346126     -0.774980      0.541276
  H       0.840996     -1.410893     -0.183581
  H       0.758935      0.232415      0.512020
  H       0.384452     -1.175609      1.547099
  N      -1.087699     -0.650019      0.145292
  O      -1.911239     -0.468583      1.028522
  O      -1.359793     -0.709460     -1.043743
  H       4.111290     -1.659855      1.472607
  O       3.285089     -1.219678      1.708667
  H       3.417991     -0.301000      1.443419
10
Coordinates from ORCA-job /home/rudenko/mop_saddle_orca_4_serv/for_orca/CH3NO2_H2O_near/orca/orca_start/start E -321.456978430457
  C       0.343828     -0.774997      0.541912
  H       0.839300     -1.410518     -0.182907
  H       0.756800      0.232401      0.513636
  H       0.381351     -1.175854      1.547703
  N      -1.089725     -0.649548      0.144242
  O      -1.914337     -0.468726      1.026505
  O      -1.360133     -0.708171     -1.045175
  H       4.117052     -1.659977      1.474095
  O       3.291419     -1.219723      1.711859
  H       3.420593     -0.302549      1.439707
10
Coordinates from ORCA-job /home/rudenko/mop_saddle_orca_4_serv/for_orca/CH3NO2_H2O_near/orca/orca_start/start E -321.456983406613
  C       0.340891     -0.775270      0.544089
  H       0.837788     -1.410122     -0.180379
  H       0.754327      0.232064      0.517937
  H       0.376274     -1.176712      1.549772
  N      -1.091771     -0.648711      0.142570
  O      -1.918920     -0.469116      1.022589
  O      -1.358457     -0.705461     -1.047740
  H       4.124459     -1.659625      1.475297
  O       3.300208     -1.219194      1.717293
  H       3.421349     -0.305515      1.430148
10
Coordinates from ORCA-job /home/rudenko/mop_saddle_orca_4_serv/for_orca/CH3NO2_H2O_near/orca/orca_start/start E -321.456992770359
  C       0.336923     -0.776116      0.549888
  H       0.837127     -1.409894     -0.173300
  H       0.751638      0.230925      0.528322
  H       0.366674     -1.179008      1.555268
  N      -1.093311     -0.647046      0.139587
  O      -1.926260     -0.470022      1.014495
  O      -1.351722     -0.699559     -1.052715
  H       4.134724     -1.657688      1.475131
  O       3.313759     -1.217108      1.727561
  H       3.416597     -0.312146      1.407341
10
Coordinates from ORCA-job /home/rudenko/mop_saddle_orca_4_serv/for_orca/CH3NO2_H2O_near/orca/orca_start/start E -321.457012997093
  C       0.330420     -0.778223      0.565172
  H       0.838956     -1.410201     -0.153937
  H       0.748900      0.227807      0.554443
  H       0.344755     -1.185000      1.569657
  N      -1.093082     -0.643260      0.133218
  O      -1.940189     -0.472351      0.995467
  O      -1.331433     -0.685393     -1.063668
  H       4.151864     -1.650620      1.470788
  O       3.340033     -1.209189      1.749840
  H       3.395925     -0.331233      1.350598
10
Coordinates from ORCA-job /home/rudenko/mop_saddle_orca_4_serv/for_orca/CH3NO2_H2O_near/orca/orca_start/start E -321.457008164822
  C       0.322872     -0.780927      0.583167
  H       0.840150     -1.412088     -0.130701
  H       0.747531      0.223640      0.584331
  H       0.318745     -1.191405      1.587177
  N      -1.092208     -0.638436      0.125739
  O      -1.955707     -0.472781      0.972363
  O      -1.306716     -0.670035     -1.075980
  H       4.172801     -1.637311      1.461427
  O       3.371776     -1.198674      1.773832
  H       3.366905     -0.359646      1.290222
10
Coordinates from ORCA-job /home/rudenko/mop_saddle_orca_4_serv/for_orca/CH3NO2_H2O_near/orca/orca_start/start E -321.456986385492
  C       0.332315     -0.778534      0.568805
  H       0.843333     -1.414137     -0.145322
  H       0.751900      0.223811      0.556760
  H       0.338179     -1.184913      1.571514
  N      -1.088020     -0.642129      0.132051
  O      -1.936362     -0.469972      0.993517
  O      -1.325205     -0.682824     -1.065151
  H       4.151782     -1.645187      1.458252
  O       3.342847     -1.206141      1.753795
  H       3.375379     -0.337635      1.347355
10
Coordinates from ORCA-job /home/rudenko/mop_saddle_orca_4_serv/for_orca/CH3NO2_H2O_near/orca/orca_start/start E -321.457009360923
  C       0.329715     -0.781012      0.575755
  H       0.841851     -1.413678     -0.140308
  H       0.753194      0.223609      0.570983
  H       0.335165     -1.187705      1.580709
  N      -1.088757     -0.640250      0.130097
  O      -1.944766     -0.468361      0.983286
  O      -1.314462     -0.680294     -1.069416
  H       4.157386     -1.638150      1.457277
  O       3.347746     -1.207843      1.759001
  H       3.369076     -0.343978      1.324194
10
Coordinates from ORCA-job /home/rudenko/mop_saddle_orca_4_serv/for_orca/CH3NO2_H2O_near/orca/orca_start/start E -321.457030605564
  C       0.332745     -0.780499      0.573896
  H       0.844948     -1.415989     -0.139385
  H       0.754701      0.223465      0.564675
  H       0.335369     -1.187513      1.577898
  N      -1.086137     -0.641177      0.131096
  O      -1.939023     -0.469236      0.987813
  O      -1.316353     -0.679559     -1.067550
  H       4.151216     -1.641953      1.454684
  O       3.344033     -1.206051      1.755999
  H       3.364649     -0.339149      1.332452
10
Coordinates from ORCA-job /home/rudenko/mop_saddle_orca_4_serv/for_orca/CH3NO2_H2O_near/orca/orca_start/start E -321.457035186870
  C       0.332225     -0.781896      0.578262
  H       0.846128     -1.419710     -0.131915
  H       0.756877      0.220753      0.569371
  H       0.329777     -1.187843      1.582744
  N      -1.084341     -0.639580      0.129498
  O      -1.940702     -0.466815      0.982597
  O      -1.309511     -0.676589     -1.070159
  H       4.154819     -1.635706      1.445157
  O       3.349615     -1.205847      1.760056
  H       3.351261     -0.344430      1.325967
10
Coordinates from ORCA-job /home/rudenko/mop_saddle_orca_4_serv/for_orca/CH3NO2_H2O_near/orca/orca_start/start E -321.457034486301
  C       0.328514     -0.787775      0.595065
  H       0.847636     -1.435971     -0.102217
  H       0.764728      0.209796      0.586301
  H       0.304546     -1.188508      1.601726
  N      -1.078623     -0.632916      0.122613
  O      -1.948278     -0.455685      0.961266
  O      -1.283400     -0.664724     -1.080857
  H       4.174082     -1.607883      1.406373
  O       3.377343     -1.206275      1.775637
  H       3.299600     -0.367719      1.305669
10
Coordinates from ORCA-job /home/rudenko/mop_saddle_orca_4_serv/for_orca/CH3NO2_H2O_near/orca/orca_start/start E -321.457041991662
  C       0.329273     -0.786175      0.590159
  H       0.847357     -1.432334     -0.109685
  H       0.762418      0.212894      0.580269
  H       0.310666     -1.187945      1.596427
  N      -1.080441     -0.634822      0.124370
  O      -1.946352     -0.459569      0.967355
  O      -1.291160     -0.667213     -1.078045
  H       4.168663     -1.617792      1.416222
  O       3.370985     -1.205868      1.771401
  H       3.314739     -0.358837      1.313105
10
Coordinates from ORCA-job /home/rudenko/mop_saddle_orca_4_serv/for_orca/CH3NO2_H2O_near/orca/orca_start/start E -321.457043647481
  C       0.327060     -0.786934      0.591753
  H       0.845725     -1.435167     -0.105741
  H       0.761929      0.211560      0.580752
  H       0.305408     -1.187022      1.598709
  N      -1.081449     -0.633935      0.122931
  O      -1.949089     -0.458849      0.964160
  O      -1.289432     -0.664902     -1.079983
  H       4.174100     -1.616102      1.410942
  O       3.379201     -1.205992      1.774147
  H       3.312697     -0.360317      1.313908
10
Coordinates from ORCA-job /home/rudenko/mop_saddle_orca_4_serv/for_orca/CH3NO2_H2O_near/orca/orca_start/start E -321.457044873782
  C       0.316187     -0.790709      0.600809
  H       0.837372     -1.448408     -0.085937
  H       0.759585      0.204512      0.585597
  H       0.279967     -1.182429      1.610931
  N      -1.086018     -0.629560      0.115726
  O      -1.963162     -0.455037      0.947017
  O      -1.278857     -0.653698     -1.089802
  H       4.199782     -1.605213      1.384442
  O       3.419202     -1.205738      1.787911
  H       3.302091     -0.371383      1.314884
10
Coordinates from ORCA-job /home/rudenko/mop_saddle_orca_4_serv/for_orca/CH3NO2_H2O_near/orca/orca_start/start E -321.457048754476
  C       0.310595     -0.792991      0.606822
  H       0.832918     -1.456461     -0.073527
  H       0.758880      0.200049      0.588718
  H       0.266467     -1.178832      1.618846
  N      -1.087744     -0.627414      0.111654
  O      -1.971061     -0.454171      0.936536
  O      -1.270854     -0.646988     -1.095445
  H       4.209409     -1.600545      1.366562
  O       3.440560     -1.203903      1.794715
  H       3.296977     -0.376404      1.316697
10
Coordinates from ORCA-job /home/rudenko/mop_saddle_orca_4_serv/for_orca/CH3NO2_H2O_near/orca/orca_start/start E -321.456949582351
  C       0.295942     -0.780406      0.636469
  H       0.820354     -1.450116     -0.036381
  H       0.762897      0.204001      0.627821
  H       0.224736     -1.163723      1.649946
  N      -1.087600     -0.630820      0.095368
  O      -1.993744     -0.419330      0.885495
  O      -1.234721     -0.701443     -1.114685
  H       4.227307     -1.574768      1.261133
  O       3.498194     -1.232170      1.793271
  H       3.272783     -0.388888      1.373140
10
Coordinates from ORCA-job /home/rudenko/mop_saddle_orca_4_serv/for_orca/CH3NO2_H2O_near/orca/orca_start/start E -321.456964471232
  C       0.296835     -0.779644      0.631483
  H       0.823210     -1.451991     -0.037143
  H       0.765394      0.204039      0.620354
  H       0.221091     -1.159197      1.645907
  N      -1.089265     -0.631128      0.096473
  O      -1.993223     -0.427577      0.891156
  O      -1.240552     -0.694925     -1.113429
  H       4.225844     -1.578210      1.263220
  O       3.502584     -1.229447      1.799342
  H       3.274231     -0.389581      1.374214
10
Coordinates from ORCA-job /home/rudenko/mop_saddle_orca_4_serv/for_orca/CH3NO2_H2O_near/orca/orca_start/start E -321.456992918223
  C       0.298594     -0.777440      0.628870
  H       0.824498     -1.446747     -0.043021
  H       0.760491      0.209074      0.616181
  H       0.231976     -1.156895      1.642947
  N      -1.089795     -0.633820      0.098081
  O      -1.992654     -0.438444      0.896081
  O      -1.244301     -0.694174     -1.111594
  H       4.214827     -1.594658      1.273490
  O       3.490132     -1.226851      1.794793
  H       3.292380     -0.377707      1.375749
10
Coordinates from ORCA-job /home/rudenko/mop_saddle_orca_4_serv/for_orca/CH3NO2_H2O_near/orca/orca_start/start E -321.457005944018
  C       0.300534     -0.777279      0.625203
  H       0.826402     -1.445375     -0.047846
  H       0.759815      0.210384      0.611615
  H       0.237386     -1.156877      1.639159
  N      -1.090041     -0.634507      0.099915
  O      -1.990391     -0.444132      0.901963
  O      -1.248934     -0.690715     -1.109404
  H       4.210543     -1.600478      1.283297
  O       3.482995     -1.224469      1.794682
  H       3.297838     -0.374214      1.372996
10
Coordinates from ORCA-job /home/rudenko/mop_saddle_orca_4_serv/for_orca/CH3NO2_H2O_near/orca/orca_start/start E -321.457018814755
  C       0.302345     -0.777562      0.621717
  H       0.828141     -1.444471     -0.052489
  H       0.758905      0.211285      0.607152
  H       0.242833     -1.157273      1.635549
  N      -1.090239     -0.634992      0.101694
  O      -1.988115     -0.449279      0.907614
  O      -1.253329     -0.686895     -1.107271
  H       4.206340     -1.605908      1.293115
  O       3.475948     -1.221867      1.794381
  H       3.303321     -0.370701      1.370118
10
Coordinates from ORCA-job /home/rudenko/mop_saddle_orca_4_serv/for_orca/CH3NO2_H2O_near/orca/orca_start/start E -321.457032435225
  C       0.304064     -0.778385      0.618439
  H       0.829843     -1.444152     -0.056825
  H       0.757637      0.211743      0.602705
  H       0.248427     -1.158061      1.632168
  N      -1.090333     -0.635259      0.103417
  O      -1.985798     -0.453932      0.913025
  O      -1.257403     -0.682595     -1.105206
  H       4.201897     -1.611065      1.302755
  O       3.468879     -1.218963      1.793847
  H       3.308937     -0.366992      1.367252
10
Coordinates from ORCA-job /home/rudenko/mop_saddle_orca_4_serv/for_orca/CH3NO2_H2O_near/orca/orca_start/start E -321.457047320113
  C       0.305713     -0.780059      0.615521
  H       0.831625     -1.444757     -0.060590
  H       0.755790      0.211542      0.598283
  H       0.254363     -1.159446      1.629199
  N      -1.090187     -0.635203      0.105061
  O      -1.983378     -0.457846      0.918070
  O      -1.260871     -0.677542     -1.103259
  H       4.196875     -1.615862      1.311957
  O       3.461586     -1.215590      1.792957
  H       3.314632     -0.362898      1.364379
10
Coordinates from ORCA-job /home/rudenko/mop_saddle_orca_4_serv/for_orca/CH3NO2_H2O_near/orca/orca_start/start E -321.457068473462
  C       0.308008     -0.785606      0.614611
  H       0.835663     -1.449619     -0.060638
  H       0.750759      0.208978      0.593577
  H       0.263493     -1.162841      1.628696
  N      -1.087941     -0.634039      0.106479
  O      -1.979825     -0.459596      0.921607
  O      -1.260397     -0.668952     -1.101871
  H       4.185250     -1.620581      1.317031
  O       3.450721     -1.209774      1.790149
  H       3.320418     -0.355631      1.361938
10
Coordinates from ORCA-job /home/rudenko/mop_saddle_orca_4_serv/for_orca/CH3NO2_H2O_near/orca/orca_start/start E -321.457077391447
  C       0.307663     -0.785480      0.617279
  H       0.836886     -1.450762     -0.055525
  H       0.751135      0.208764      0.596021
  H       0.260088     -1.161408      1.631869
  N      -1.086802     -0.634012      0.105233
  O      -1.980639     -0.456469      0.917553
  O      -1.256207     -0.672099     -1.103459
  H       4.183896     -1.617642      1.305518
  O       3.454572     -1.211675      1.790655
  H       3.315557     -0.356879      1.366434
10
Coordinates from ORCA-job /home/rudenko/mop_saddle_orca_4_serv/for_orca/CH3NO2_H2O_near/orca/orca_start/start E -321.457085894500
  C       0.307271     -0.785584      0.619874
  H       0.838054     -1.452158     -0.050447
  H       0.751452      0.208323      0.598332
  H       0.256641     -1.160153      1.634968
  N      -1.085704     -0.633887      0.103999
  O      -1.981406     -0.453146      0.913557
  O      -1.252118     -0.674999     -1.105015
  H       4.182537     -1.614544      1.294132
  O       3.458571     -1.213452      1.791154
  H       3.310850     -0.358062      1.371026
10
Coordinates from ORCA-job /home/rudenko/mop_saddle_orca_4_serv/for_orca/CH3NO2_H2O_near/orca/orca_start/start E -321.457108925295
  C       0.312443     -0.788697      0.622073
  H       0.847391     -1.460060     -0.040242
  H       0.754774      0.206502      0.595029
  H       0.257980     -1.156498      1.639563
  N      -1.079389     -0.634987      0.104399
  O      -1.976391     -0.457530      0.913184
  O      -1.243276     -0.667842     -1.105236
  H       4.159036     -1.615487      1.275497
  O       3.453085     -1.209166      1.793786
  H       3.300495     -0.353896      1.373525
10
Coordinates from ORCA-job /home/rudenko/mop_saddle_orca_4_serv/for_orca/CH3NO2_H2O_near/orca/orca_start/start E -321.457128120581
  C       0.319085     -0.788739      0.624802
  H       0.856814     -1.466579     -0.028634
  H       0.762354      0.206237      0.590760
  H       0.258868     -1.148154      1.645350
  N      -1.071950     -0.637531      0.104769
  O      -1.971630     -0.468695      0.912409
  O      -1.232340     -0.661909     -1.105557
  H       4.125002     -1.620793      1.249415
  O       3.448881     -1.203990      1.798330
  H       3.291065     -0.347507      1.379931
10
Coordinates from ORCA-job /home/rudenko/mop_saddle_orca_4_serv/for_orca/CH3NO2_H2O_near/orca/orca_start/start E -321.457155925995
  C       0.327847     -0.786485      0.628410
  H       0.867782     -1.472820     -0.014422
  H       0.772701      0.207445      0.583325
  H       0.262952     -1.134393      1.653183
  N      -1.062378     -0.642055      0.105246
  O      -1.966615     -0.488909      0.911043
  O      -1.218005     -0.655708     -1.105929
  H       4.069235     -1.632949      1.211902
  O       3.444911     -1.196383      1.804943
  H       3.287719     -0.335406      1.393876
10
Coordinates from ORCA-job /home/rudenko/mop_saddle_orca_4_serv/for_orca/CH3NO2_H2O_near/orca/orca_start/start E -321.457233481760
  C       0.350836     -0.780193      0.636601
  H       0.894173     -1.485648      0.017137
  H       0.798080      0.210994      0.562685
  H       0.280191     -1.100176      1.671085
  N      -1.038174     -0.654685      0.107312
  O      -1.952754     -0.544573      0.908742
  O      -1.183630     -0.640087     -1.105266
  H       3.906650     -1.662882      1.125878
  O       3.437420     -1.178434      1.816387
  H       3.293357     -0.301977      1.431016
10
Coordinates from ORCA-job /home/rudenko/mop_saddle_orca_4_serv/for_orca/CH3NO2_H2O_near/orca/orca_start/start E -321.457314763681
  C       0.375794     -0.775511      0.642482
  H       0.920488     -1.496090      0.041333
  H       0.823770      0.213248      0.542878
  H       0.303895     -1.072006      1.684469
  N      -1.013301     -0.666779      0.111056
  O      -1.934216     -0.598679      0.910099
  O      -1.153297     -0.623521     -1.101597
  H       3.733111     -1.681643      1.062920
  O       3.426572     -1.164571      1.817902
  H       3.303334     -0.272109      1.460037
10
Coordinates from ORCA-job /home/rudenko/mop_saddle_orca_4_serv/for_orca/CH3NO2_H2O_near/orca/orca_start/start E -321.457352829371
  C       0.392213     -0.773211      0.641632
  H       0.936233     -1.503487      0.051312
  H       0.840497      0.213451      0.524150
  H       0.321048     -1.053967      1.687798
  N      -0.999044     -0.674344      0.114360
  O      -1.920220     -0.639744      0.915205
  O      -1.140708     -0.606743     -1.097034
  H       3.609471     -1.689337      1.036133
  O       3.426045     -1.156064      1.819310
  H       3.320615     -0.254216      1.478712
10
Coordinates from ORCA-job /home/rudenko/mop_saddle_orca_4_serv/for_orca/CH3NO2_H2O_near/orca/orca_start/start E -321.457378768571
  C       0.417211     -0.770939      0.642889
  H       0.957170     -1.516274      0.067191
  H       0.867910      0.211005      0.499044
  H       0.349230     -1.029115      1.694860
  N      -0.975935     -0.684666      0.118988
  O      -1.897894     -0.696716      0.919605
  O      -1.118875     -0.583610     -1.089983
  H       3.416710     -1.680255      1.004659
  O       3.429710     -1.151063      1.811547
  H       3.340911     -0.236029      1.502777
10
Coordinates from ORCA-job /home/rudenko/mop_saddle_orca_4_serv/for_orca/CH3NO2_H2O_near/orca/orca_start/start E -321.457457310328
  C       0.402417     -0.768400      0.640253
  H       0.938563     -1.509287      0.055150
  H       0.852972      0.213845      0.503153
  H       0.339092     -1.034146      1.689912
  N      -0.990755     -0.681300      0.115665
  O      -1.912301     -0.682852      0.916703
  O      -1.133751     -0.593231     -1.094194
  H       3.484435     -1.687400      1.018049
  O       3.445845     -1.153089      1.820764
  H       3.359631     -0.241801      1.506122
10
Coordinates from ORCA-job /home/rudenko/mop_saddle_orca_4_serv/for_orca/CH3NO2_H2O_near/orca/orca_start/start E -321.457526985858
  C       0.397354     -0.764028      0.637069
  H       0.923502     -1.510412      0.049161
  H       0.849048      0.214673      0.487926
  H       0.345493     -1.022517      1.687386
  N      -0.997329     -0.683375      0.113562
  O      -1.918415     -0.706119      0.914430
  O      -1.141389     -0.586060     -1.095283
  H       3.440862     -1.683005      1.021640
  O       3.482836     -1.154953      1.828527
  H       3.404188     -0.241865      1.527160
10
Coordinates from ORCA-job /home/rudenko/mop_saddle_orca_4_serv/for_orca/CH3NO2_H2O_near/orca/orca_start/start E -321.457540803104
  C       0.392727     -0.764611      0.635284
  H       0.916142     -1.513652      0.047973
  H       0.843086      0.213133      0.478564
  H       0.347668     -1.018248      1.687048
  N      -1.002443     -0.683834      0.111857
  O      -1.923737     -0.714934      0.911995
  O      -1.146089     -0.578072     -1.096266
  H       3.426333     -1.679172      1.025799
  O       3.506134     -1.156111      1.833181
  H       3.426327     -0.242161      1.536143
10
Coordinates from ORCA-job /home/rudenko/mop_saddle_orca_4_serv/for_orca/CH3NO2_H2O_near/orca/orca_start/start E -321.457543768431
  C       0.390698     -0.765360      0.634983
  H       0.913823     -1.514615      0.047723
  H       0.839838      0.213021      0.476361
  H       0.347612     -1.018328      1.687116
  N      -1.004561     -0.683810      0.111252
  O      -1.926123     -0.715241      0.910998
  O      -1.147421     -0.575987     -1.096717
  H       3.428451     -1.679276      1.027323
  O       3.511423     -1.156484      1.834594
  H       3.432407     -0.241580      1.537945
10
Coordinates from ORCA-job /home/rudenko/mop_saddle_orca_4_serv/for_orca/CH3NO2_H2O_near/orca/orca_start/start E -321.457544119568
  C       0.390411     -0.765618      0.635049
  H       0.913422     -1.515065      0.048063
  H       0.839498      0.212955      0.475996
  H       0.346930     -1.018650      1.687018
  N      -1.004892     -0.683595      0.111200
  O      -1.926470     -0.714772      0.910922
  O      -1.147514     -0.575341     -1.096721
  H       3.431215     -1.679282      1.027603
  O       3.512250     -1.156496      1.835120
  H       3.431298     -0.241799      1.537327
10
Coordinates from ORCA-job /home/rudenko/mop_saddle_orca_4_serv/for_orca/CH3NO2_H2O_near/orca/orca_start/start E -321.457544106981
  C       0.390520     -0.765516      0.635034
  H       0.913342     -1.515258      0.048217
  H       0.839854      0.212904      0.475639
  H       0.347087     -1.018492      1.687084
  N      -1.004765     -0.683664      0.111229
  O      -1.926353     -0.715416      0.910944
  O      -1.147400     -0.574937     -1.096640
  H       3.429969     -1.679297      1.027587
  O       3.512245     -1.156488      1.834955
  H       3.431651     -0.241498      1.537528
