!  opt B3LYP def2-TZVP CPCM D3 
%pal nprocs 102 end
%cpcm epsilon 78.4 end 
*xyz 0 1 
C   0.60892177 0.24294888 0.27192344
H   0.21285484 -0.01921318 1.26000176
N   0.82951196 -2.12598072 -0.21564397
O   0.57958203 -2.44157941 0.97500738
O   1.06986073 -3.0665164 -1.02037215
H   1.2481524 1.83194817 -1.00699221
C   0.86320055 -0.85638004 -0.62635847
H   1.08765014 -0.65448663 -1.66981672
H   3.01710459 -0.31394005 -0.73659171
C   0.84284375 1.518234 -0.06023569
H   0.65256424 2.34737283 0.59941491
C   6.86564596 1.37220403 -0.18213856
C   7.87416135 2.333479 -0.05291529
C   7.5122095 3.68560172 -0.03265011
C   6.1705151 4.04351902 -0.13559629
C   5.20019827 3.05142234 -0.26449378
N   5.56294351 1.74217915 -0.28873816
H   7.09342348 0.291086 -0.19994661
H   5.86988685 5.09780718 -0.11825336
H   4.12561187 3.29001231 -0.34978271
C   9.28816106 1.90439755 0.0446052
H   9.96710696 2.72153397 0.33588628
H   9.66293148 1.51611079 -0.92030559
H   9.43753578 1.09670789 0.78240966
H   8.28234044 4.4588941 0.06354666
H   4.27678763 -1.02230335 -0.22313313
O   3.98162617 -0.34853317 -0.86060971
H   4.81986608 0.99378559 -0.40893859
*
