!  NUMFREQ B3LYP def2-TZVP CPCM D3 
%pal nprocs 102 end
%cpcm epsilon 78.4 end 
*xyz 0 1 
C   0.67934903613472 -0.35034420289173 -0.22463899162346
H   0.24782331028531 0.64329355202595 -0.27209112909852
N   -0.9307254006079 -1.32121502858168 1.42879259932698
O   -1.80172653454624 -1.0353196013514 0.62640786080068
O   -1.14192942305155 -1.81233820026319 2.52683535098237
H   1.79042723786781 -1.83614642703498 -1.22365145327028
C   0.52107044799973 -1.08545087582903 1.06003864825732
H   0.96511414062524 -2.08354744433694 1.03603276228062
H   0.92385836489952 -0.53883386963179 1.91371702972381
C   1.35090917700246 -0.84612553170521 -1.25662115522558
H   1.48416544825033 -0.27200551264712 -2.1652076261791
C   5.44325866004611 -3.67789123441357 0.1185786795223
C   6.73066998487916 -3.16572165562107 -0.00809558928823
C   6.90888672992635 -1.78807111859344 0.2021213587349
C   5.78621698744859 -1.03108627707062 0.52972984721238
C   4.54554127910036 -1.63982800124193 0.63517238108053
N   4.36895971126431 -2.9468959600236 0.43134746936649
H   5.27213672104551 -4.73800080131276 -0.04164447217421
H   5.8809910092331 0.0340315477035 0.70094273031803
H   3.66384037739018 -1.06306390283889 0.88814258720182
C   7.88005648139219 -4.0653439558188 -0.35557787758673
H   8.62997809869392 -4.06869479362573 0.43979373877141
H   8.38248327928769 -3.72905941342436 -1.26581982379366
H   7.5415260067416 -5.0897371744623 -0.50857975247136
C   8.26042927438784 -1.15236287879533 0.07636025783694
H   8.21463728781612 -0.08611765279031 0.29319489752159
H   8.6586287122826 -1.28523590151611 -0.93304756449485
H   8.97551966810432 -1.6176345563567 0.75906646732157
H   2.7532046981809 -3.70966762087346 0.60410511653524
O   1.86015152846505 -4.12243632954618 0.73771407238117
H   1.49675115945416 -4.22402903713092 -0.15030052997021
*
