39
	Energy:     -73.8082200
C          0.09419        3.37958        0.97107
C          0.73178        2.14269        0.96668
C          0.06352        1.00743        1.43057
C         -1.25671        1.10920        1.87156
C         -1.89226        2.35055        1.87780
C         -1.21830        3.48444        1.43214
H          0.62243        4.26358        0.61413
H          1.75913        2.06516        0.59934
H         -1.80066        0.22491        2.20826
H         -1.71489        4.45532        1.44188
C          0.81388       -0.29685        1.46190
C          0.43513       -1.19299        2.63295
H          1.08693       -2.07416        2.71445
H         -0.59881       -1.56172        2.57812
H          0.52891       -0.63935        3.58031
N          0.53180       -1.03803        0.18795
O          1.46910       -1.27624       -0.56200
O         -0.61120       -1.37737       -0.07253
N          5.03019        0.39526        4.22738
C          5.80093       -0.86220        4.36835
C          6.63822       -0.81153        5.66497
N          7.55447        0.35530        5.62337
C          6.78289        1.61483        5.48198
C          5.94142        1.56559        4.19047
H          5.31720        2.48266        4.11102
H          6.61386        1.55392        3.30649
H          7.50363        2.45894        5.43089
H          6.11980        1.80988        6.35150
H          7.25577       -1.73053        5.75426
H          5.95987       -0.78840        6.54483
H          6.46647       -1.05687        3.50072
H          1.93370       -0.09405        1.49471
H          4.47475        0.37448        3.36112
H          5.07672       -1.70445        4.41810
H          8.10818        0.38963        6.48835
H          4.19113        1.65757        1.12074
H          3.31854        2.04052        2.31114
O          3.60547        1.27821        1.79256
H         -2.91784        2.43455        2.23934
