!  opt B3LYP def2-TZVP CPCM D3 
%pal nprocs 102 end
%cpcm epsilon 78.4 end 
*xyz 0 1 
C   3.51104682 2.2897106 -0.85816257
C   3.27960424 1.02890665 -0.31744191
C   2.4893087 0.0871802 -0.99767657
C   1.92761433 0.43819069 -2.23387714
C   2.18600565 1.69760324 -2.74465363
C   2.96539027 2.64189849 -2.09404758
H   4.13001473 3.00833335 -0.31689904
H   3.72618224 0.76666707 0.64363254
H   1.30168171 -0.27899725 -2.77258081
Cl   1.51824579 2.09815678 -4.27762289
H   3.15787582 3.62596108 -2.5217076
C   2.25128135 -1.22085825 -0.40981809
C   1.98877621 -1.30617245 1.05522069
H   1.68067017 -2.3140336 1.37371212
H   1.18881653 -0.61346283 1.35883937
H   2.88050573 -1.0492756 1.64714078
N   2.21139114 -2.32474502 -1.15827727
O   1.95897318 -3.45687564 -0.68474808
O   2.47697936 -2.28241134 -2.40907231
N   4.91564802 -1.2625583 -2.96315416
C   5.4901409 -2.23809194 -3.95906706
C   6.95384509 -1.88056529 -4.23087501
O   7.04780956 -0.55019117 -4.70968185
C   6.5563683 0.40174407 -3.78517101
C   5.07461631 0.13736002 -3.49729383
H   4.68341778 0.8687008 -2.75309653
H   4.46539777 0.25281062 -4.42507087
H   6.70780355 1.36891908 -4.30548287
H   7.17529355 0.39231165 -2.86821627
H   7.3770693 -2.48095184 -5.06144012
H   7.59728001 -2.00589506 -3.34020124
H   4.89053344 -2.19965324 -4.90048426
H   4.60628933 -1.56122543 0.03876674
H   3.87964739 -1.49356175 -2.76886829
H   5.39548857 -3.2765473 -3.56374228
H   6.06880074 -2.00205237 0.13134651
H   5.40783222 -1.34794097 -2.03117942
O   5.49518297 -1.32417723 -0.26111909
*
