!  NUMFREQ B3LYP def2-TZVP CPCM D3 
%pal nprocs 102 end
%cpcm epsilon 78.4 end 
*xyz -1 1 
C   -2.30464014848278 0.72763458466024 -0.44420667920315
C   -1.01197202230754 0.69185711953914 0.04350343577021
C   -0.05083013227896 -0.16805606961217 -0.50627789658735
C   -0.43365014453427 -1.0109540719666 -1.55497914674746
C   -1.72584836485977 -0.9921281650286 -2.05515703805846
C   -2.64813637759601 -0.11862646064301 -1.49406480254355
H   -3.04285190108956 1.38756911067654 -0.01457643978367
H   -0.73960566894996 1.33315743870864 0.868610669752
H   0.28201546298777 -1.68985779301763 -1.99566098898666
C   1.32999410353942 -0.22528702651272 0.07364170756143
H   1.19435830285241 -0.16284283654258 1.30803773561243
C   2.13825462578643 -1.47702989006006 -0.20711985626983
H   3.01347995222877 -1.5176697360525 0.43743992782761
H   2.47477071494591 -1.54386350678983 -1.24459369374335
H   1.51888450576571 -2.34700219307718 0.011532857224
N   2.101693870776 0.99237216332408 -0.18307054595787
O   3.33370430496651 0.92208544472784 -0.14885739856172
O   1.51607555829377 2.06742352998828 -0.33836336513849
O   2.64327083281436 1.82092419869132 3.53642277837023
H   2.29652781335872 2.14466497718408 4.37494324973002
H   -2.01451325090521 -1.63803562677165 -2.87042622283186
N   -4.01145424874978 -0.09474003943342 -2.01096341136261
O   -4.31889569880957 -0.89890790004052 -2.88518974003407
O   -4.79659947577501 0.72811095636666 -1.55019607686953
H   0.15801817153829 0.12237345285902 2.86930866722738
H   2.02022766252508 1.07603239252174 3.25794557047967
O   1.07772155195925 -0.12920405369908 2.72231670312465
*
