!  opt B3LYP def2-TZVP CPCM D3 
%pal nprocs 102 end
%cpcm epsilon 78.4 end 
*xyz 0 1 
C   -0.10189 0.0519 0.14134
H   -1.14386 0.17402 0.44525
N   -0.2272 -2.37867 0.18199
O   -1.41804 -2.5711 0.3582
O   0.62529 -3.12396 0.64517
H   1.87775 0.85951 0.10187
C   0.20305 -1.20609 -0.61092
H   -0.34017 -1.21506 -1.59621
H   1.29163 -1.30062 -0.86766
C   0.83768 0.9621 0.38844
H   0.64114 1.89565 0.90081
C   6.5396 -2.73916 0.25285
C   7.91656 -2.73222 -0.02148
C   8.52901 -1.50219 -0.27685
C   7.76531 -0.33872 -0.24515
C   6.40015 -0.43313 0.05046
N   5.7989 -1.61513 0.28781
H   5.99752 -3.67465 0.44714
H   8.21705 0.63148 -0.44864
H   5.76067 0.45737 0.09949
C   8.68107 -4.00249 -0.06315
H   9.74894 -3.86665 0.16885
H   8.63196 -4.46016 -1.06673
H   8.29856 -4.75428 0.64447
H   9.59758 -1.45501 -0.50037
H   2.51964 -2.99355 -0.23081
O   3.17164 -2.66951 -0.85693
H   3.88518 -2.30811 -0.31179
*
