23
Coordinates from ORCA-job neb E -628.672258723876
  C      -1.570393      0.460379     -0.299903
  H      -0.328568      1.066692     -0.352696
  N      -1.380991     -0.440797      0.776062
  O      -0.909031     -1.577514      0.554560
  O      -1.624321     -0.074349      1.945018
  C       2.672391     -0.839888      0.161099
  O       2.367716      0.223026      0.876960
  O       2.445151     -0.939062     -1.037187
  C       3.295347     -1.959896      0.953727
  H       3.692185     -2.714709      0.278743
  H       2.520044     -2.412562      1.577205
  H       4.079653     -1.595073      1.617041
  C      -2.504420      1.604812      0.046837
  H      -2.062348      2.270326      0.788550
  H      -3.466402      1.257498      0.440033
  H      -2.693666      2.186309     -0.856381
  C      -1.860110     -0.261818     -1.605524
  H      -2.704357     -0.954626     -1.496273
  H      -1.008232     -0.836591     -1.966083
  H      -2.127017      0.468254     -2.370048
  H       1.737303      0.879695      0.317894
  O       0.780035      1.669268     -0.392989
  H       0.650029      2.520627      0.043354
23
Coordinates from ORCA-job neb E -628.672822350226
  C      -1.562943      0.461636     -0.304037
  H      -0.333637      1.073010     -0.364991
  N      -1.347299     -0.449870      0.758259
  O      -0.865746     -1.578328      0.515900
  O      -1.550197     -0.089659      1.937003
  C       2.631302     -0.863946      0.164534
  O       2.356886      0.225359      0.852768
  O       2.371415     -1.002538     -1.023267
  C       3.282577     -1.953285      0.977213
  H       3.662517     -2.731404      0.319360
  H       2.529272     -2.384607      1.641484
  H       4.085064     -1.560184      1.601579
  C      -2.504388      1.592248      0.067347
  H      -2.067256      2.246507      0.821940
  H      -3.462828      1.229165      0.454217
  H      -2.699849      2.190068     -0.823656
  C      -1.851276     -0.241021     -1.619357
  H      -2.691117     -0.939718     -1.521322
  H      -0.995656     -0.803978     -1.989885
  H      -2.121450      0.500987     -2.371092
  H       1.724849      0.881268      0.293443
  O       0.769690      1.674492     -0.413909
  H       0.640069      2.523799      0.026469
23
Coordinates from ORCA-job neb E -628.673138924630
  C      -1.559114      0.463587     -0.306385
  H      -0.343717      1.064678     -0.374279
  N      -1.336516     -0.456701      0.750686
  O      -0.885560     -1.593472      0.494860
  O      -1.524514     -0.101298      1.932450
  C       2.624647     -0.871693      0.166739
  O       2.351647      0.225045      0.841826
  O       2.356788     -1.028966     -1.017334
  C       3.287477     -1.946051      0.990611
  H       3.669215     -2.731437      0.342440
  H       2.541559     -2.372372      1.666393
  H       4.090854     -1.537338      1.603701
  C      -2.501165      1.589520      0.078989
  H      -2.067692      2.230022      0.847264
  H      -3.462904      1.221656      0.452809
  H      -2.689741      2.202578     -0.803048
  C      -1.854996     -0.229361     -1.625063
  H      -2.702223     -0.919589     -1.533012
  H      -1.003909     -0.798004     -1.997543
  H      -2.115209      0.520634     -2.372395
  H       1.715476      0.880816      0.277989
  O       0.770854      1.669253     -0.428238
  H       0.638744      2.518493      0.010539
23
Coordinates from ORCA-job neb E -628.673505024970
  C      -1.584305      0.460060     -0.300679
  H      -0.345290      1.064128     -0.373949
  N      -1.360377     -0.452085      0.755000
  O      -0.928265     -1.599262      0.503039
  O      -1.503221     -0.077717      1.939893
  C       2.638063     -0.887000      0.162399
  O       2.332872      0.200127      0.841438
  O       2.385751     -1.044298     -1.024362
  C       3.318185     -1.945344      0.992308
  H       3.730452     -2.718715      0.348754
  H       2.576636     -2.393110      1.658890
  H       4.101732     -1.513844      1.615296
  C      -2.512440      1.597719      0.077970
  H      -2.085382      2.223571      0.861459
  H      -3.486436      1.239778      0.429064
  H      -2.675883      2.222359     -0.800956
  C      -1.864708     -0.222142     -1.625213
  H      -2.724616     -0.898300     -1.553560
  H      -1.014947     -0.802959     -1.981565
  H      -2.095548      0.535416     -2.374696
  H       1.704107      0.851950      0.280711
  O       0.759409      1.654854     -0.436671
  H       0.634213      2.504814      0.005429
23
Coordinates from ORCA-job neb E -628.673962926129
  C      -1.585270      0.464850     -0.298687
  H      -0.363981      1.062640     -0.385265
  N      -1.341536     -0.454448      0.747637
  O      -0.944849     -1.609994      0.480152
  O      -1.438253     -0.078999      1.936764
  C       2.614086     -0.915936      0.163841
  O       2.305641      0.181008      0.822143
  O       2.323252     -1.115898     -1.007958
  C       3.335181     -1.935818      1.008692
  H       3.748335     -2.723124      0.382578
  H       2.621882     -2.374481      1.711021
  H       4.124662     -1.464319      1.594202
  C      -2.519201      1.592917      0.095035
  H      -2.112118      2.189354      0.910353
  H      -3.504633      1.226485      0.405081
  H      -2.657160      2.247343     -0.766304
  C      -1.857532     -0.198449     -1.632681
  H      -2.733128     -0.856964     -1.591256
  H      -1.010391     -0.790932     -1.975766
  H      -2.052276      0.574569     -2.376876
  H       1.673171      0.835449      0.257469
  O       0.750055      1.649176     -0.463506
  H       0.624061      2.495571     -0.016669
23
Coordinates from ORCA-job neb E -628.673900467758
  C      -1.619996      0.471819     -0.289971
  H      -0.381400      1.051569     -0.385343
  N      -1.388224     -0.440949      0.759763
  O      -1.047751     -1.617028      0.501587
  O      -1.448014     -0.047632      1.947054
  C       2.612308     -0.962945      0.171288
  O       2.246249      0.111773      0.835514
  O       2.372674     -1.150460     -1.013932
  C       3.415610     -1.928247      1.006679
  H       3.901938     -2.668262      0.375522
  H       2.740479     -2.436340      1.699377
  H       4.156087     -1.393746      1.602328
  C      -2.535982      1.618573      0.088406
  H      -2.152602      2.180711      0.938069
  H      -3.546691      1.274513      0.337871
  H      -2.612509      2.297992     -0.761278
  C      -1.877655     -0.182673     -1.628871
  H      -2.788669     -0.792581     -1.627237
  H      -1.048613     -0.820269     -1.932793
  H      -1.995630      0.598368     -2.381159
  H       1.627657      0.769137      0.265379
  O       0.742398      1.609164     -0.477976
  H       0.628338      2.457514     -0.030275
23
Coordinates from ORCA-job neb E -628.673315003752
  C      -1.628591      0.467786     -0.285090
  H      -0.388741      1.057214     -0.405241
  N      -1.365624     -0.457292      0.742574
  O      -1.031910     -1.629913      0.458601
  O      -1.344675     -0.069499      1.934072
  C       2.623955     -0.967356      0.167726
  O       2.212199      0.097557      0.819039
  O       2.294598     -1.236082     -0.979904
  C       3.431728     -1.905459      1.031275
  H       3.893567     -2.682851      0.427548
  H       2.771201     -2.370216      1.767819
  H       4.192167     -1.348079      1.577847
  C      -2.545405      1.604080      0.118847
  H      -2.206581      2.094538      1.028514
  H      -3.576337      1.264036      0.276902
  H      -2.557966      2.343528     -0.683113
  C      -1.885931     -0.154949     -1.637538
  H      -2.837991     -0.697244     -1.685350
  H      -1.091740     -0.846545     -1.914288
  H      -1.914163      0.641636     -2.382839
  H       1.591809      0.744773      0.239904
  O       0.736344      1.599522     -0.530785
  H       0.628088      2.450814     -0.086522
23
Coordinates from ORCA-job neb E -628.674139299279
  C      -1.614503      0.470002     -0.291412
  H      -0.380953      1.056163     -0.394464
  N      -1.368020     -0.452193      0.748056
  O      -1.012561     -1.620274      0.475091
  O      -1.416972     -0.070887      1.939504
  C       2.612719     -0.957964      0.174812
  O       2.244868      0.121460      0.829962
  O       2.320848     -1.183742     -0.992113
  C       3.411613     -1.919812      1.019080
  H       3.866326     -2.687457      0.397533
  H       2.741695     -2.394079      1.740473
  H       4.177229     -1.386628      1.583021
  C      -2.535578      1.607444      0.102187
  H      -2.166334      2.143976      0.974075
  H      -3.551306      1.258225      0.322479
  H      -2.596024      2.310879     -0.729328
  C      -1.880697     -0.171986     -1.635078
  H      -2.806553     -0.759255     -1.643513
  H      -1.065530     -0.827829     -1.936849
  H      -1.975518      0.615703     -2.383998
  H       1.621503      0.772462      0.254897
  O       0.743176      1.612165     -0.498251
  H       0.630572      2.463626     -0.056166
23
Coordinates from ORCA-job neb E -628.674124147653
  C      -1.600426      0.469211     -0.293382
  H      -0.371622      1.061554     -0.385402
  N      -1.360401     -0.449534      0.752084
  O      -0.972941     -1.608711      0.485543
  O      -1.441536     -0.069575      1.941487
  C       2.614235     -0.937869      0.167566
  O       2.271882      0.146777      0.828668
  O       2.321158     -1.148935     -1.001725
  C       3.377390     -1.929940      1.008897
  H       3.809690     -2.706646      0.382671
  H       2.687803     -2.388147      1.722419
  H       4.157075     -1.427947      1.581940
  C      -2.530573      1.601821      0.093850
  H      -2.143136      2.173840      0.935304
  H      -3.531341      1.242417      0.360608
  H      -2.630871      2.276416     -0.757237
  C      -1.865808     -0.186250     -1.631566
  H      -2.766607     -0.811073     -1.615328
  H      -1.032059     -0.809622     -1.951365
  H      -2.011255      0.593650     -2.380100
  H       1.643666      0.799543      0.261003
  O       0.746721      1.630189     -0.475763
  H       0.628958      2.478830     -0.030172
23
Coordinates from ORCA-job neb E -628.674167355773
  C      -1.607237      0.471097     -0.292577
  H      -0.376399      1.057807     -0.387458
  N      -1.369539     -0.449449      0.751991
  O      -0.995248     -1.612694      0.484580
  O      -1.450543     -0.071040      1.942027
  C       2.612093     -0.950241      0.172947
  O       2.259286      0.131981      0.832109
  O       2.325572     -1.163820     -0.997592
  C       3.399530     -1.925836      1.011543
  H       3.843122     -2.695732      0.384741
  H       2.723257     -2.395221      1.730236
  H       4.172895     -1.407277      1.578607
  C      -2.533117      1.607100      0.094631
  H      -2.152966      2.165995      0.947973
  H      -3.540572      1.252816      0.342362
  H      -2.616031      2.292178     -0.750045
  C      -1.873593     -0.179575     -1.632703
  H      -2.786608     -0.786535     -1.626093
  H      -1.048854     -0.818815     -1.944096
  H      -1.996269      0.603319     -2.382379
  H       1.632729      0.784236      0.261182
  O       0.746401      1.619645     -0.482662
  H       0.632091      2.470060     -0.039325
23
Coordinates from ORCA-job neb E -628.674166786357
  C      -1.617609      0.470855     -0.291999
  H      -0.379609      1.053342     -0.393929
  N      -1.379316     -0.455944      0.745186
  O      -1.006627     -1.618310      0.469832
  O      -1.445267     -0.082311      1.938258
  C       2.616166     -0.961799      0.179839
  O       2.241948      0.115563      0.835065
  O       2.322207     -1.191445     -0.985719
  C       3.426462     -1.915946      1.021549
  H       3.873511     -2.687731      0.399635
  H       2.766086     -2.385258      1.754980
  H       4.199035     -1.378525      1.571770
  C      -2.535804      1.609935      0.102331
  H      -2.169254      2.140353      0.979107
  H      -3.554185      1.263475      0.314823
  H      -2.588635      2.317925     -0.725882
  C      -1.888683     -0.166267     -1.637120
  H      -2.824167     -0.738274     -1.646928
  H      -1.083637     -0.834793     -1.937666
  H      -1.970651      0.622935     -2.385938
  H       1.616964      0.761868      0.258534
  O       0.744126      1.602506     -0.500780
  H       0.636938      2.457847     -0.064948
23
Coordinates from ORCA-job neb E -628.674182821714
  C      -1.611859      0.471520     -0.292556
  H      -0.378531      1.053947     -0.389339
  N      -1.377371     -0.453128      0.749104
  O      -1.002484     -1.615469      0.478336
  O      -1.459683     -0.079117      1.940507
  C       2.615449     -0.955625      0.176946
  O       2.253269      0.124404      0.834505
  O       2.325894     -1.176046     -0.991578
  C       3.415162     -1.921047      1.015782
  H       3.857692     -2.692874      0.390635
  H       2.747931     -2.388969      1.743818
  H       4.190503     -1.394034      1.572260
  C      -2.534014      1.609444      0.097137
  H      -2.159681      2.156001      0.960841
  H      -3.546610      1.259032      0.329146
  H      -2.603017      2.304455     -0.740742
  C      -1.881655     -0.172911     -1.634938
  H      -2.806352     -0.762085     -1.634774
  H      -1.067211     -0.827245     -1.941593
  H      -1.984932      0.612922     -2.384546
  H       1.625906      0.773411      0.260972
  O       0.746099      1.610047     -0.489314
  H       0.635495      2.463367     -0.050609
23
Coordinates from ORCA-job neb E -628.674184075234
  C      -1.610719      0.472237     -0.291466
  H      -0.378019      1.055720     -0.384568
  N      -1.379779     -0.450369      0.752924
  O      -0.999700     -1.611859      0.485797
  O      -1.470179     -0.074953      1.943218
  C       2.614111     -0.954820      0.174864
  O       2.257507      0.125915      0.834399
  O       2.319700     -1.173718     -0.992733
  C       3.413176     -1.923536      1.010492
  H       3.849258     -2.697603      0.383590
  H       2.747261     -2.388016      1.741942
  H       4.193566     -1.399904      1.563099
  C      -2.535936      1.609554      0.092861
  H      -2.161979      2.162630      0.952647
  H      -3.547029      1.257472      0.328795
  H      -2.608340      2.299214     -0.749112
  C      -1.875454     -0.175734     -1.633334
  H      -2.796833     -0.770087     -1.632563
  H      -1.057153     -0.825911     -1.938610
  H      -1.982781      0.608287     -2.384214
  H       1.628392      0.776120      0.263938
  O       0.746063      1.613788     -0.481716
  H       0.634869      2.465573     -0.040250
23
Coordinates from ORCA-job neb E -628.674183664979
  C      -1.611442      0.475206     -0.287058
  H      -0.379297      1.058621     -0.369438
  N      -1.394244     -0.440244      0.766958
  O      -1.006772     -1.602221      0.513128
  O      -1.506509     -0.058053      1.953073
  C       2.612875     -0.955872      0.169154
  O       2.263478      0.121996      0.837147
  O       2.309471     -1.167754     -0.997446
  C       3.417932     -1.929814      0.992896
  H       3.842197     -2.704876      0.359147
  H       2.759755     -2.392008      1.732689
  H       4.208155     -1.410665      1.535755
  C      -2.543242      1.613701      0.077935
  H      -2.174337      2.181459      0.930455
  H      -3.553351      1.260768      0.316570
  H      -2.616183      2.290382     -0.774418
  C      -1.859430     -0.183426     -1.627365
  H      -2.776010     -0.785125     -1.630040
  H      -1.033463     -0.828742     -1.922147
  H      -1.966999      0.594957     -2.383993
  H       1.630036      0.776010      0.275138
  O       0.744755      1.619315     -0.459122
  H       0.632627      2.466384     -0.009019
23
Coordinates from ORCA-job neb E -628.674182529077
  C      -1.613255      0.478678     -0.281229
  H      -0.381237      1.063398     -0.352378
  N      -1.409436     -0.427545      0.783337
  O      -1.014899     -1.590437      0.544835
  O      -1.540022     -0.035706      1.964417
  C       2.609140     -0.958770      0.162413
  O       2.265302      0.114589      0.840311
  O       2.293342     -1.164398     -1.002055
  C       3.424087     -1.936245      0.972209
  H       3.835555     -2.712177      0.331162
  H       2.777218     -2.396513      1.723031
  H       4.224976     -1.419612      1.501772
  C      -2.552917      1.617844      0.061105
  H      -2.193844      2.198359      0.909316
  H      -3.563616      1.264035      0.295791
  H      -2.621187      2.283118     -0.800558
  C      -1.839855     -0.191697     -1.619661
  H      -2.753110     -0.798312     -1.630430
  H      -1.006493     -0.834675     -1.898391
  H      -1.941035      0.580430     -2.383543
  H       1.628473      0.773437      0.287664
  O       0.742803      1.625614     -0.435179
  H       0.630010      2.466585      0.026060
23
Coordinates from ORCA-job neb E -628.674179236657
  C      -1.615788      0.482201     -0.274869
  H      -0.383587      1.068263     -0.335178
  N      -1.424880     -0.413760      0.800513
  O      -1.025909     -1.578421      0.578176
  O      -1.572070     -0.011177      1.976096
  C       2.605555     -0.961931      0.155381
  O       2.263411      0.104619      0.844600
  O       2.281227     -1.159108     -1.008244
  C       3.431281     -1.942338      0.950639
  H       3.831932     -2.717578      0.301988
  H       2.796151     -2.402753      1.711235
  H       4.241186     -1.427240      1.467978
  C      -2.562676      1.622274      0.043598
  H      -2.215517      2.213876      0.889163
  H      -3.574960      1.268103      0.270680
  H      -2.623058      2.277487     -0.826336
  C      -1.820407     -0.200207     -1.610691
  H      -2.732045     -0.808967     -1.631206
  H      -0.981352     -0.843625     -1.870726
  H      -1.910900      0.565289     -2.382577
  H       1.624556      0.768700      0.300752
  O       0.740479      1.630946     -0.412005
  H       0.627372      2.465349      0.061034
23
Coordinates from ORCA-job neb E -628.674179153727
  C      -1.616464      0.483409     -0.272309
  H      -0.384116      1.070765     -0.329180
  N      -1.428829     -0.408379      0.806811
  O      -1.027546     -1.573389      0.590147
  O      -1.579981     -0.001533      1.980526
  C       2.604327     -0.962362      0.152160
  O       2.260378      0.100391      0.846316
  O       2.279869     -1.154913     -1.012211
  C       3.432249     -1.944625      0.942816
  H       3.828797     -2.719963      0.291796
  H       2.800446     -2.404424      1.706517
  H       4.245468     -1.430761      1.456246
  C      -2.566371      1.623232      0.037497
  H      -2.225039      2.217986      0.883227
  H      -3.579428      1.268254      0.259872
  H      -2.622929      2.275881     -0.834639
  C      -1.813108     -0.203563     -1.606791
  H      -2.725172     -0.811554     -1.631292
  H      -0.973012     -0.848797     -1.858826
  H      -1.897733      0.559223     -2.382036
  H       1.621970      0.766794      0.305129
  O       0.739544      1.633322     -0.404844
  H       0.626680      2.465006      0.073070
23
Coordinates from ORCA-job neb E -628.674177029512
  C      -1.616436      0.485764     -0.266777
  H      -0.385141      1.076057     -0.316536
  N      -1.435526     -0.397521      0.820341
  O      -1.029938     -1.563241      0.615601
  O      -1.598045      0.017246      1.989856
  C       2.601728     -0.962003      0.144768
  O       2.254292      0.092754      0.849188
  O       2.279163     -1.143654     -1.021920
  C       3.432173     -1.949349      0.926383
  H       3.816525     -2.727408      0.271370
  H       2.807350     -2.404099      1.698693
  H       4.254868     -1.439678      1.429020
  C      -2.573600      1.624012      0.024976
  H      -2.246165      2.224428      0.872188
  H      -3.588284      1.266297      0.235367
  H      -2.621199      2.272417     -0.850897
  C      -1.797261     -0.210771     -1.598221
  H      -2.711618     -0.814971     -1.630973
  H      -0.956647     -0.861795     -1.832806
  H      -1.867644      0.546108     -2.380694
  H       1.616985      0.764676      0.313195
  O       0.738327      1.639572     -0.390376
  H       0.626093      2.465161      0.098256
23
Coordinates from ORCA-job neb E -628.674177813809
  C      -1.615508      0.485732     -0.265181
  H      -0.384458      1.078201     -0.313704
  N      -1.434983     -0.395681      0.823298
  O      -1.026817     -1.560969      0.620846
  O      -1.599314      0.020544      1.992113
  C       2.600416     -0.960900      0.142320
  O       2.252242      0.092186      0.848939
  O       2.280078     -1.139211     -1.025465
  C       3.429086     -1.950456      0.922975
  H       3.806773     -2.732122      0.268410
  H       2.805919     -2.399618      1.699819
  H       4.256738     -1.443249      1.420054
  C      -2.575174      1.622674      0.022841
  H      -2.252689      2.223092      0.871914
  H      -3.590326      1.263256      0.228159
  H      -2.619747      2.271562     -0.852858
  C      -1.792717     -0.212482     -1.596095
  H      -2.708718     -0.814103     -1.631142
  H      -0.953040     -0.866304     -1.826057
  H      -1.858101      0.543151     -2.380203
  H       1.616121      0.765704      0.313932
  O       0.737880      1.642536     -0.388281
  H       0.626339      2.466457      0.103366
23
Coordinates from ORCA-job neb E -628.674176816106
  C      -1.611691      0.485017     -0.261512
  H      -0.382788      1.082142     -0.307738
  N      -1.432205     -0.393351      0.829664
  O      -1.019287     -1.557744      0.631561
  O      -1.603160      0.024548      1.996972
  C       2.597418     -0.956652      0.136655
  O       2.248889      0.093572      0.847377
  O       2.283655     -1.126892     -1.034081
  C       3.419394     -1.952554      0.916241
  H       3.777385     -2.745510      0.264252
  H       2.800344     -2.384102      1.706070
  H       4.261372     -1.453058      1.397163
  C      -2.577409      1.618446      0.019258
  H      -2.266563      2.217607      0.873460
  H      -3.593541      1.254748      0.211984
  H      -2.614713      2.269619     -0.855124
  C      -1.782273     -0.216192     -1.591573
  H      -2.702648     -0.810893     -1.631384
  H      -0.945626     -0.876913     -1.812153
  H      -1.836234      0.537120     -2.378801
  H       1.615310      0.770699      0.313858
  O       0.737216      1.649861     -0.384832
  H       0.627155      2.470482      0.112683
23
Coordinates from ORCA-job neb E -628.674178910740
  C      -1.609918      0.483934     -0.261532
  H      -0.381666      1.082607     -0.308958
  N      -1.428405     -0.395771      0.828165
  O      -1.014530     -1.559489      0.628024
  O      -1.597966      0.020462      1.996294
  C       2.595564     -0.955377      0.136704
  O       2.249245      0.096822      0.845643
  O       2.282256     -1.126489     -1.034013
  C       3.414669     -1.952015      0.918337
  H       3.766695     -2.749714      0.268900
  H       2.796297     -2.376550      1.712435
  H       4.260843     -1.454378      1.393881
  C      -2.576373      1.616098      0.021733
  H      -2.266510      2.212891      0.877919
  H      -3.592451      1.251189      0.212478
  H      -2.613297      2.269712     -0.850856
  C      -1.781699     -0.215440     -1.592381
  H      -2.702633     -0.809262     -1.632231
  H      -0.945677     -0.876451     -1.814387
  H      -1.835621      0.538959     -2.378574
  H       1.616446      0.773858      0.311236
  O       0.737306      1.651661     -0.387797
  H       0.627425      2.472745      0.108983
23
Coordinates from ORCA-job neb E -628.674181270871
  C      -1.603793      0.479860     -0.261376
  H      -0.377919      1.082915     -0.313079
  N      -1.416252     -0.404300      0.823621
  O      -1.000968     -1.566396      0.616987
  O      -1.582532      0.006220      1.994312
  C       2.591472     -0.949395      0.136454
  O       2.249817      0.107720      0.840519
  O       2.284823     -1.120314     -1.036016
  C       3.398150     -1.950217      0.925484
  H       3.730647     -2.762942      0.284473
  H       2.780434     -2.351498      1.731886
  H       4.257819     -1.460652      1.385303
  C      -2.571748      1.608611      0.030218
  H      -2.264105      2.197926      0.892292
  H      -3.587733      1.240563      0.215412
  H      -2.607611      2.269748     -0.836755
  C      -1.780524     -0.213466     -1.594754
  H      -2.702987     -0.804940     -1.633774
  H      -0.946519     -0.874951     -1.822531
  H      -1.835618      0.544509     -2.377445
  H       1.620106      0.784383      0.302296
  O       0.737341      1.656694     -0.398386
  H       0.627699      2.479920      0.094860
23
Coordinates from ORCA-job neb E -628.674181763386
  C      -1.602288      0.478980     -0.261528
  H      -0.377040      1.082967     -0.314644
  N      -1.412697     -0.406489      0.821989
  O      -0.996721     -1.567955      0.613199
  O      -1.577219      0.002445      1.993504
  C       2.590527     -0.947982      0.136608
  O       2.249303      0.110158      0.839398
  O       2.286309     -1.118838     -1.036504
  C       3.393690     -1.949840      0.927878
  H       3.722808     -2.765475      0.288826
  H       2.775273     -2.346479      1.736010
  H       4.255633     -1.462152      1.385497
  C      -2.570456      1.606828      0.032873
  H      -2.262471      2.194634      0.895833
  H      -3.586157      1.237977      0.218019
  H      -2.607141      2.269558     -0.832843
  C      -1.780598     -0.212749     -1.595494
  H      -2.702477     -0.805180     -1.633660
  H      -0.946271     -0.873012     -1.825724
  H      -1.837885      0.546229     -2.377053
  H       1.620660      0.786803      0.299765
  O       0.737551      1.657731     -0.401811
  H       0.627665      2.481843      0.089863
