40
	Energy:    -101.5040200
C          1.62544        2.87248        2.05246
C          1.98972        1.55577        1.76940
C          1.01245        0.60038        1.48151
C         -0.33595        0.96125        1.46460
C         -0.66321        2.28026        1.73928
C          0.28431        3.25009        2.03862
H          2.39707        3.61042        2.28507
H          3.04931        1.28026        1.77629
H         -1.10835        0.21888        1.24007
Cl        -2.31964        2.72969        1.70565
H         -0.00121        4.28153        2.25821
C          1.43302       -0.82142        1.21954
C          0.80252       -1.79302        2.20866
H          1.15293       -2.82484        2.05905
H         -0.29592       -1.80576        2.15683
H          1.07142       -1.51839        3.24203
N          1.02124       -1.19861       -0.17473
O          1.90190       -1.41647       -0.99239
O         -0.16280       -1.27168       -0.45470
N          7.22038       -1.36636        2.55072
C          7.62268       -2.56650        1.77794
C          9.10995       -2.91801        1.96500
C          9.98506       -1.71718        1.58516
C          9.56610       -0.47480        2.38095
C          8.06363       -0.20199        2.18604
H          2.56519       -0.92206        1.26537
H          6.97865       -3.41505        2.09390
H          7.40612       -2.38142        0.70312
H          9.37228       -3.79862        1.35081
H          9.30272       -3.21116        3.01391
H         11.05065       -1.94704        1.77219
H          9.90462       -1.51775        0.49947
H         10.15592        0.40465        2.06479
H          9.78942       -0.61875        3.45470
H          7.74263        0.66477        2.80336
H          7.85560        0.06377        1.12655
H          7.31003       -1.55581        3.55524
H          4.33105       -0.21041        2.89452
H          5.44345       -0.88257        2.09291
O          4.50825       -0.58424        2.02746
