!  opt B3LYP def2-TZVP CPCM D3 
%pal nprocs 102 end
%cpcm epsilon 78.4 end 
*xyz 0 2 
C   0.63945149 0.99302873 -0.73394264
C   0.75412755 -0.28601012 -1.27370177
C   -0.21331345 -1.26483411 -1.0046492
C   -1.31129008 -0.94998894 -0.1972446
C   -1.41714247 0.34334302 0.32406471
C   -0.44916917 1.32201552 0.06833698
H   1.40964669 1.74134599 -0.93841433
H   1.60582278 -0.52983677 -1.91328867
H   -2.07528974 -1.70695917 0.01179701
H   -0.5444723 2.32682093 0.49099037
N   -2.55661519 0.67106916 1.14562988
O   -2.65995883 1.80485528 1.59802424
O   -3.39874607 -0.18658001 1.37765755
C   -0.09437958 -2.61201871 -1.54237301
C   -0.07681666 -3.74551384 -0.57611385
H   0.13839554 -4.71052325 -1.05946984
H   -1.04538038 -3.85443642 -0.06119597
H   0.68976045 -3.59877467 0.20001129
N   -0.0547339 -2.81267261 -2.85992584
O   0.02930051 -3.96990061 -3.3581216
O   -0.10485068 -1.84224533 -3.66657516
H   2.21469504 -2.90189429 -1.92848409
C   5.09894266 -6.45053007 -5.06054057
N   4.12139023 -6.90349298 -5.88149658
C   2.74316051 -6.40609739 -5.75356018
C   2.5160312 -5.61984058 -4.45645609
N   3.61994168 -4.60317362 -4.30155514
C   4.93247268 -5.33015663 -4.10072245
H   6.06812358 -6.92990399 -5.09695282
H   4.21098007 -7.84133129 -6.26727725
H   2.01759956 -7.25287956 -5.81406903
H   2.5278561 -5.76103252 -6.64412751
H   1.5270363 -5.09507923 -4.4836701
H   2.49932804 -6.29160445 -3.56740737
H   3.67411076 -4.0077803 -5.15859011
H   5.76731542 -4.59000366 -4.1995914
H   4.98095883 -5.70894538 -3.04617157
H   3.51112679 -3.36681421 -1.23808856
H   3.42897493 -3.96602386 -3.4805076
O   3.17005583 -2.97765819 -2.05879457
*
