40
	Energy:     -67.8737800
C         -0.35231        1.00331        1.08993
C          1.02631        0.79868        1.06966
C          1.55790       -0.38708        0.55312
C          0.70921       -1.37022        0.04801
C         -0.67137       -1.14793        0.07001
C         -1.21446        0.03383        0.58995
H         -0.75794        1.93161        1.50177
H          1.69275        1.57747        1.46583
H          1.11637       -2.30419       -0.36235
H         -2.29932        0.19517        0.60209
N         -1.55470       -2.16210       -0.44984
O         -2.76307       -1.96497       -0.43628
O         -1.07780       -3.19889       -0.89292
C          3.04748       -0.59419        0.57976
C          3.43766       -1.87582        1.30565
H          4.52784       -1.98271        1.40706
H          3.06302       -2.78329        0.80866
H          3.02623       -1.88043        2.32847
N          3.55719       -0.66655       -0.83272
O          4.38699        0.15625       -1.18556
O          3.13709       -1.53352       -1.57844
H          3.56586        0.29011        1.07255
C          5.92029        4.68184        5.93437
N          7.19528        4.95587        5.53372
C          7.64394        4.53776        4.19394
C          6.67680        3.52663        3.54347
N          5.27674        3.99927        3.60771
C          4.86279        4.16141        5.02503
H          5.66382        4.84391        6.96976
H          7.92114        4.92066        6.24840
H          8.66884        4.10883        4.24858
H          7.71871        5.45383        3.56063
H          6.95270        3.35852        2.47935
H          6.74625        2.54021        4.05212
H          5.18887        4.89397        3.11190
H          3.95917        4.81506        5.06146
H          4.52778        3.15669        5.38875
H          3.40773        1.29323        3.37652
H          4.20004        2.52680        2.92516
O          3.59560        1.82879        2.60254
