13
	Energy:    -161.0515100
C          0.52782       -0.77706        0.43277
H          0.84879       -1.44668       -0.39238
H          1.00009        0.21493        0.25429
H          0.93770       -1.17701        1.38396
N         -0.92134       -0.63667        0.48412
O         -1.46182       -0.42900        1.56109
O         -1.56446       -0.71934       -0.55260
H          4.18777       -1.36812        0.47068
O          3.24020       -1.18847        0.34010
H          3.16070       -0.24619        0.51822
H          6.24747       -2.03104       -0.02145
O          5.87179       -1.52885        0.71998
H          6.19618       -0.62489        0.57204
