25
	Energy:    -223.4995400
C          0.88896        3.27563        1.95684
C          1.38127        1.97359        1.87904
C          0.50243        0.89329        1.77224
C         -0.87696        1.10897        1.73760
C         -1.33250        2.41573        1.81741
C         -0.48501        3.50975        1.92747
H          1.57890        4.11923        2.03998
H          2.46430        1.79969        1.90239
H         -1.56966        0.26782        1.64575
Cl        -3.02908        2.69005        1.77701
H         -0.87421        4.52771        1.98907
C          1.06705       -0.49940        1.71139
C          0.44627       -1.42799        2.74619
H          0.92680       -2.41734        2.76318
H         -0.62828       -1.59212        2.58458
H          0.54676       -1.00559        3.75906
N          0.81635       -1.06874        0.34376
O          1.77299       -1.47286       -0.29871
O         -0.32411       -1.11561       -0.08583
H          2.19888       -0.46787        1.86221
O          6.54593        0.07101        2.57368
H          6.86812        0.68492        1.96910
H          5.28180       -0.05550        2.22062
H          4.19581       -0.74639        1.18319
O          4.18898       -0.15536        1.90910
