10
Coordinates from ORCA-job /home/rudenko/mopac_kie/for_orca/CH3NO2_H2O_near/orca/orca_start/start E -321.451436658089
  C       0.563940     -0.789320      0.406120
  H       0.873020     -1.453000     -0.427400
  H       1.047730      0.198800      0.237490
  H       0.977520     -1.202210      1.349920
  N      -0.883350     -0.638700      0.465680
  O      -1.419960     -0.444270      1.547430
  O      -1.532170     -0.701450     -0.569200
  H       3.966440     -1.749090      0.211450
  O       3.256670     -1.263420      0.648830
  H       3.451850     -0.340980      0.442970
10
Coordinates from ORCA-job /home/rudenko/mopac_kie/for_orca/CH3NO2_H2O_near/orca/orca_start/start E -321.454371356277
  C       0.556801     -0.794260      0.408090
  H       0.845526     -1.441944     -0.412277
  H       1.013924      0.182101      0.244031
  H       0.946742     -1.194400      1.336445
  N      -0.901179     -0.643205      0.466020
  O      -1.421588     -0.433923      1.554336
  O      -1.532719     -0.694054     -0.581811
  H       4.014314     -1.750420      0.209456
  O       3.301073     -1.269485      0.648830
  H       3.478795     -0.344049      0.440169
10
Coordinates from ORCA-job /home/rudenko/mopac_kie/for_orca/CH3NO2_H2O_near/orca/orca_start/start E -321.455446596727
  C       0.552015     -0.790216      0.409417
  H       0.820362     -1.435960     -0.413127
  H       0.990746      0.189563      0.247264
  H       0.919115     -1.187871      1.342450
  N      -0.916623     -0.631124      0.463938
  O      -1.432363     -0.439743      1.556298
  O      -1.540034     -0.701514     -0.586076
  H       4.057657     -1.756531      0.208270
  O       3.343684     -1.278589      0.649283
  H       3.507131     -0.351655      0.435573
10
Coordinates from ORCA-job /home/rudenko/mopac_kie/for_orca/CH3NO2_H2O_near/orca/orca_start/start E -321.456079468075
  C       0.550916     -0.801558      0.413438
  H       0.797647     -1.446792     -0.416984
  H       0.962381      0.190880      0.252770
  H       0.892157     -1.197178      1.358019
  N      -0.932513     -0.643676      0.464742
  O      -1.441148     -0.419082      1.551751
  O      -1.543021     -0.679773     -0.591974
  H       4.105448     -1.750033      0.205195
  O       3.386844     -1.282919      0.649232
  H       3.522978     -0.353509      0.427101
10
Coordinates from ORCA-job /home/rudenko/mopac_kie/for_orca/CH3NO2_H2O_near/orca/orca_start/start E -321.456499817796
  C       0.537461     -0.794587      0.413533
  H       0.779280     -1.443388     -0.420667
  H       0.948210      0.202070      0.252397
  H       0.872350     -1.193343      1.363799
  N      -0.947668     -0.631341      0.463257
  O      -1.463908     -0.426398      1.550424
  O      -1.563522     -0.686557     -0.589279
  H       4.149650     -1.755260      0.204632
  O       3.430746     -1.291771      0.651745
  H       3.559092     -0.363066      0.423450
10
Coordinates from ORCA-job /home/rudenko/mopac_kie/for_orca/CH3NO2_H2O_near/orca/orca_start/start E -321.456707761288
  C       0.520702     -0.792835      0.414172
  H       0.760381     -1.442749     -0.420228
  H       0.930432      0.204312      0.252632
  H       0.851925     -1.192554      1.365801
  N      -0.964162     -0.628802      0.463112
  O      -1.483252     -0.423270      1.549070
  O      -1.581294     -0.682712     -0.589033
  H       4.196483     -1.756000      0.202745
  O       3.476156     -1.298924      0.654254
  H       3.594320     -0.370106      0.420765
10
Coordinates from ORCA-job /home/rudenko/mopac_kie/for_orca/CH3NO2_H2O_near/orca/orca_start/start E -321.456843642215
  C       0.502855     -0.791391      0.415335
  H       0.741069     -1.442518     -0.417729
  H       0.912895      0.204552      0.253192
  H       0.829939     -1.190957      1.367661
  N      -0.980720     -0.626068      0.462725
  O      -1.500869     -0.419516      1.548323
  O      -1.596684     -0.678485     -0.590621
  H       4.243956     -1.755296      0.198820
  O       3.522091     -1.306780      0.656766
  H       3.627160     -0.377180      0.418818
10
Coordinates from ORCA-job /home/rudenko/mopac_kie/for_orca/CH3NO2_H2O_near/orca/orca_start/start E -321.456920530499
  C       0.484055     -0.790294      0.416720
  H       0.722318     -1.443841     -0.414336
  H       0.896629      0.204065      0.252832
  H       0.808757     -1.188459      1.370397
  N      -0.998204     -0.622950      0.462114
  O      -1.518857     -0.414763      1.547189
  O      -1.612193     -0.674328     -0.592558
  H       4.291635     -1.753129      0.191816
  O       3.568441     -1.315602      0.658406
  H       3.659107     -0.384340      0.420709
10
Coordinates from ORCA-job /home/rudenko/mopac_kie/for_orca/CH3NO2_H2O_near/orca/orca_start/start E -321.456960823160
  C       0.465958     -0.789953      0.418592
  H       0.703680     -1.447400     -0.409651
  H       0.881620      0.202565      0.251370
  H       0.788119     -1.185013      1.374564
  N      -1.015866     -0.618970      0.461141
  O      -1.537371     -0.408197      1.545090
  O      -1.627322     -0.670611     -0.594800
  H       4.339407     -1.748430      0.180279
  O       3.614760     -1.326134      0.658508
  H       3.688704     -0.391495      0.428197
10
Coordinates from ORCA-job /home/rudenko/mopac_kie/for_orca/CH3NO2_H2O_near/orca/orca_start/start E -321.456972637761
  C       0.454794     -0.790636      0.420236
  H       0.691743     -1.452212     -0.405086
  H       0.873204      0.200172      0.249131
  H       0.775170     -1.182136      1.378429
  N      -1.027004     -0.615859      0.460204
  O      -1.549482     -0.401524      1.542839
  O      -1.636562     -0.668357     -0.596620
  H       4.370215     -1.742151      0.167965
  O       3.644374     -1.334725      0.657111
  H       3.705238     -0.396212      0.439079
10
Coordinates from ORCA-job /home/rudenko/mopac_kie/for_orca/CH3NO2_H2O_near/orca/orca_start/start E -321.456976632119
  C       0.452076     -0.791859      0.421236
  H       0.688214     -1.456508     -0.401880
  H       0.872142      0.197763      0.247063
  H       0.771287     -1.180630      1.380962
  N      -1.029733     -0.614280      0.459541
  O      -1.552819     -0.396801      1.541216
  O      -1.638302     -0.667844     -0.597725
  H       4.379195     -1.736425      0.158681
  O       3.652721     -1.339311      0.655261
  H       3.706909     -0.397746      0.448935
10
Coordinates from ORCA-job /home/rudenko/mopac_kie/for_orca/CH3NO2_H2O_near/orca/orca_start/start E -321.456992368350
  C       0.446311     -0.798709      0.425888
  H       0.678337     -1.478397     -0.386226
  H       0.874892      0.184826      0.236609
  H       0.760094     -1.174294      1.392810
  N      -1.035006     -0.607570      0.456330
  O      -1.560749     -0.374117      1.533297
  O      -1.639324     -0.666809     -0.602834
  H       4.403192     -1.704726      0.114314
  O       3.674192     -1.359109      0.644368
  H       3.699752     -0.404734      0.498734
10
Coordinates from ORCA-job /home/rudenko/mopac_kie/for_orca/CH3NO2_H2O_near/orca/orca_start/start E -321.457010132935
  C       0.445956     -0.806433      0.431096
  H       0.673840     -1.501536     -0.369236
  H       0.884158      0.170116      0.226505
  H       0.753549     -1.168649      1.405258
  N      -1.034170     -0.601180      0.452820
  O      -1.562759     -0.351127      1.524646
  O      -1.634023     -0.666264     -0.608402
  H       4.413145     -1.666810      0.070643
  O       3.682450     -1.377244      0.630965
  H       3.679544     -0.414515      0.548995
10
Coordinates from ORCA-job /home/rudenko/mopac_kie/for_orca/CH3NO2_H2O_near/orca/orca_start/start E -321.457037656572
  C       0.450473     -0.814451      0.437472
  H       0.675996     -1.523873     -0.350836
  H       0.898808      0.154284      0.219344
  H       0.750185     -1.164506      1.418565
  N      -1.027389     -0.595361      0.448873
  O      -1.559748     -0.330075      1.515247
  O      -1.621880     -0.665024     -0.615119
  H       4.409355     -1.625768      0.031057
  O       3.679030     -1.391903      0.617320
  H       3.646861     -0.426962      0.591366
10
Coordinates from ORCA-job /home/rudenko/mopac_kie/for_orca/CH3NO2_H2O_near/orca/orca_start/start E -321.457062585835
  C       0.454769     -0.822343      0.444628
  H       0.678698     -1.546005     -0.331141
  H       0.914195      0.137877      0.213794
  H       0.744745     -1.160665      1.432565
  N      -1.019858     -0.589347      0.444632
  O      -1.556100     -0.309532      1.505423
  O      -1.608386     -0.662819     -0.622579
  H       4.404980     -1.581297     -0.005881
  O       3.676699     -1.406298      0.603198
  H       3.611948     -0.443211      0.628652
10
Coordinates from ORCA-job /home/rudenko/mopac_kie/for_orca/CH3NO2_H2O_near/orca/orca_start/start E -321.457077225410
  C       0.458163     -0.829895      0.450968
  H       0.678761     -1.568056     -0.312321
  H       0.928816      0.121883      0.206780
  H       0.739538     -1.155741      1.445569
  N      -1.013724     -0.583306      0.440712
  O      -1.552769     -0.288597      1.496053
  O      -1.597293     -0.661361     -0.628936
  H       4.403086     -1.534316     -0.039805
  O       3.676783     -1.421118      0.586198
  H       3.580329     -0.463134      0.668071
10
Coordinates from ORCA-job /home/rudenko/mopac_kie/for_orca/CH3NO2_H2O_near/orca/orca_start/start E -321.457082476083
  C       0.469481     -0.836790      0.457400
  H       0.690860     -1.585257     -0.294814
  H       0.948518      0.107486      0.204471
  H       0.741517     -1.153158      1.457458
  N      -0.999401     -0.579418      0.436671
  O      -1.542102     -0.274543      1.487298
  O      -1.577680     -0.659752     -0.635826
  H       4.377715     -1.496273     -0.066078
  O       3.657424     -1.427665      0.573563
  H       3.535358     -0.478270      0.693146
10
Coordinates from ORCA-job /home/rudenko/mopac_kie/for_orca/CH3NO2_H2O_near/orca/orca_start/start E -321.457087645453
  C       0.468789     -0.839402      0.458148
  H       0.685328     -1.595024     -0.289301
  H       0.952225      0.101648      0.197528
  H       0.741023     -1.148876      1.460531
  N      -1.000015     -0.576909      0.435849
  O      -1.542093     -0.264354      1.484496
  O      -1.578093     -0.661159     -0.636279
  H       4.382554     -1.474559     -0.078305
  O       3.661288     -1.434931      0.562439
  H       3.530686     -0.490074      0.718184
10
Coordinates from ORCA-job /home/rudenko/mopac_kie/for_orca/CH3NO2_H2O_near/orca/orca_start/start E -321.457089931169
  C       0.467635     -0.837513      0.456082
  H       0.684801     -1.589862     -0.294153
  H       0.947479      0.105750      0.197977
  H       0.743059     -1.149282      1.456923
  N      -1.002191     -0.578439      0.436862
  O      -1.543443     -0.269272      1.486918
  O      -1.581687     -0.662003     -0.634490
  H       4.383284     -1.486992     -0.072416
  O       3.661810     -1.431518      0.566707
  H       3.540941     -0.484510      0.712880
10
Coordinates from ORCA-job /home/rudenko/mopac_kie/for_orca/CH3NO2_H2O_near/orca/orca_start/start E -321.457092503209
  C       0.468857     -0.838162      0.455538
  H       0.685027     -1.592765     -0.292499
  H       0.948677      0.104015      0.194280
  H       0.745699     -1.146825      1.456968
  N      -1.000946     -0.578097      0.436648
  O      -1.541730     -0.266943      1.486352
  O      -1.580792     -0.663189     -0.634351
  H       4.378633     -1.480589     -0.077769
  O       3.658835     -1.432723      0.563670
  H       3.539429     -0.488362      0.724452
10
Coordinates from ORCA-job /home/rudenko/mopac_kie/for_orca/CH3NO2_H2O_near/orca/orca_start/start E -321.457100577247
  C       0.470952     -0.840347      0.452882
  H       0.681860     -1.604967     -0.286167
  H       0.951641      0.097158      0.177780
  H       0.753058     -1.136292      1.456691
  N      -0.998426     -0.576349      0.436109
  O      -1.536329     -0.256648      1.484692
  O      -1.580558     -0.667798     -0.633045
  H       4.367581     -1.451675     -0.098033
  O       3.653422     -1.439515      0.551022
  H       3.538490     -0.507208      0.771359
10
Coordinates from ORCA-job /home/rudenko/mopac_kie/for_orca/CH3NO2_H2O_near/orca/orca_start/start E -321.457111152078
  C       0.472297     -0.842361      0.447684
  H       0.674777     -1.621772     -0.278283
  H       0.953921      0.088213      0.151452
  H       0.762280     -1.119744      1.454473
  N      -0.996318     -0.574061      0.435918
  O      -1.528572     -0.242737      1.483735
  O      -1.583480     -0.674714     -0.629659
  H       4.354746     -1.407737     -0.123533
  O       3.649484     -1.449242      0.533858
  H       3.542555     -0.539485      0.837646
10
Coordinates from ORCA-job /home/rudenko/mopac_kie/for_orca/CH3NO2_H2O_near/orca/orca_start/start E -321.457120912526
  C       0.469839     -0.840734      0.437780
  H       0.664736     -1.632204     -0.276831
  H       0.947284      0.084617      0.120260
  H       0.770759     -1.101108      1.445653
  N      -0.998456     -0.573678      0.437457
  O      -1.521735     -0.235785      1.487678
  O      -1.594980     -0.682296     -0.622328
  H       4.345679     -1.373416     -0.140953
  O       3.652493     -1.457171      0.525466
  H       3.566071     -0.571865      0.899108
10
Coordinates from ORCA-job /home/rudenko/mopac_kie/for_orca/CH3NO2_H2O_near/orca/orca_start/start E -321.457126464708
  C       0.469769     -0.839862      0.430500
  H       0.658835     -1.641380     -0.274867
  H       0.945492      0.080538      0.095754
  H       0.776432     -1.087343      1.439820
  N      -0.998460     -0.573246      0.438540
  O      -1.514343     -0.229657      1.490601
  O      -1.602786     -0.687269     -0.616366
  H       4.336363     -1.342708     -0.152690
  O       3.653449     -1.463256      0.518921
  H       3.576939     -0.599455      0.943078
10
Coordinates from ORCA-job /home/rudenko/mopac_kie/for_orca/CH3NO2_H2O_near/orca/orca_start/start E -321.457134217582
  C       0.471013     -0.839353      0.421471
  H       0.651374     -1.656423     -0.269405
  H       0.945916      0.072104      0.061349
  H       0.784256     -1.067244      1.433275
  N      -0.997000     -0.571619      0.439675
  O      -1.502920     -0.218504      1.493511
  O      -1.611710     -0.694150     -0.608326
  H       4.321342     -1.290422     -0.167577
  O       3.655217     -1.472554      0.507211
  H       3.584201     -0.645473      1.002105
10
Coordinates from ORCA-job /home/rudenko/mopac_kie/for_orca/CH3NO2_H2O_near/orca/orca_start/start E -321.457133072389
  C       0.472401     -0.837947      0.410911
  H       0.643439     -1.670748     -0.265343
  H       0.945749      0.063846      0.024388
  H       0.792751     -1.046033      1.424699
  N      -0.995589     -0.570274      0.441351
  O      -1.490037     -0.208342      1.497770
  O      -1.622452     -0.701353     -0.598456
  H       4.304784     -1.236579     -0.177211
  O       3.657839     -1.481064      0.496729
  H       3.592804     -0.695145      1.058452
10
Coordinates from ORCA-job /home/rudenko/mopac_kie/for_orca/CH3NO2_H2O_near/orca/orca_start/start E -321.457127238294
  C       0.474668     -0.837973      0.410823
  H       0.650267     -1.667352     -0.263539
  H       0.944370      0.063717      0.023303
  H       0.792183     -1.046981      1.424895
  N      -0.993525     -0.570230      0.441114
  O      -1.488537     -0.211090      1.498301
  O      -1.619631     -0.699744     -0.599178
  H       4.293808     -1.235932     -0.178963
  O       3.658318     -1.483910      0.504791
  H       3.589769     -0.694144      1.051744
10
Coordinates from ORCA-job /home/rudenko/mopac_kie/for_orca/CH3NO2_H2O_near/orca/orca_start/start E -321.457141075184
  C       0.474050     -0.836627      0.409029
  H       0.648668     -1.665046     -0.268525
  H       0.943121      0.067420      0.023755
  H       0.796012     -1.047724      1.421596
  N      -0.994673     -0.571639      0.441854
  O      -1.489023     -0.213936      1.499791
  O      -1.621843     -0.701144     -0.597814
  H       4.294467     -1.247548     -0.178541
  O       3.654507     -1.479617      0.506468
  H       3.596405     -0.687778      1.055676
10
Coordinates from ORCA-job /home/rudenko/mopac_kie/for_orca/CH3NO2_H2O_near/orca/orca_start/start E -321.457142818638
  C       0.476491     -0.837511      0.408551
  H       0.649793     -1.669675     -0.265918
  H       0.946613      0.063943      0.018616
  H       0.797738     -1.045033      1.421980
  N      -0.992074     -0.570811      0.441765
  O      -1.485082     -0.211089      1.499674
  O      -1.620445     -0.700975     -0.597079
  H       4.286897     -1.233849     -0.180373
  O       3.652739     -1.482356      0.504077
  H       3.589021     -0.696283      1.061995
10
Coordinates from ORCA-job /home/rudenko/mopac_kie/for_orca/CH3NO2_H2O_near/orca/orca_start/start E -321.457150059929
  C       0.478059     -0.837471      0.408122
  H       0.651359     -1.669516     -0.266090
  H       0.946244      0.064320      0.017479
  H       0.801957     -1.044676      1.420795
  N      -0.990769     -0.570939      0.441913
  O      -1.484246     -0.212463      1.499957
  O      -1.618227     -0.700599     -0.597438
  H       4.278160     -1.233706     -0.182758
  O       3.651049     -1.482730      0.507680
  H       3.588105     -0.695859      1.063629
10
Coordinates from ORCA-job /home/rudenko/mopac_kie/for_orca/CH3NO2_H2O_near/orca/orca_start/start E -321.457172723967
  C       0.489653     -0.836812      0.396815
  H       0.656289     -1.679588     -0.264915
  H       0.946865      0.059441     -0.017026
  H       0.833309     -1.027236      1.406258
  N      -0.979773     -0.571159      0.444149
  O      -1.465912     -0.213692      1.505675
  O      -1.613290     -0.702511     -0.591036
  H       4.209086     -1.191916     -0.199309
  O       3.642321     -1.491186      0.522331
  H       3.583142     -0.728982      1.110346
10
Coordinates from ORCA-job /home/rudenko/mopac_kie/for_orca/CH3NO2_H2O_near/orca/orca_start/start E -321.457194069266
  C       0.499914     -0.836815      0.382171
  H       0.656161     -1.694989     -0.262747
  H       0.947374      0.049859     -0.061446
  H       0.864086     -1.004574      1.388485
  N      -0.969351     -0.570283      0.447047
  O      -1.443695     -0.211292      1.513232
  O      -1.613701     -0.703614     -0.581040
  H       4.137095     -1.131964     -0.208577
  O       3.645260     -1.504212      0.533653
  H       3.578547     -0.775756      1.162512
10
Coordinates from ORCA-job /home/rudenko/mopac_kie/for_orca/CH3NO2_H2O_near/orca/orca_start/start E -321.457214518162
  C       0.509291     -0.836805      0.366085
  H       0.654215     -1.710240     -0.261704
  H       0.947036      0.039243     -0.107308
  H       0.893653     -0.981670      1.368527
  N      -0.959139     -0.569371      0.450351
  O      -1.419828     -0.208433      1.521759
  O      -1.616283     -0.704874     -0.569300
  H       4.065400     -1.072171     -0.208875
  O       3.650865     -1.515024      0.541761
  H       3.576480     -0.824295      1.211995
10
Coordinates from ORCA-job /home/rudenko/mopac_kie/for_orca/CH3NO2_H2O_near/orca/orca_start/start E -321.457238734818
  C       0.521480     -0.838093      0.350249
  H       0.654697     -1.726797     -0.259462
  H       0.950375      0.026197     -0.152342
  H       0.924781     -0.959859      1.348272
  N      -0.945232     -0.568316      0.453585
  O      -1.392048     -0.205522      1.530159
  O      -1.615216     -0.704566     -0.557668
  H       3.982249     -1.011057     -0.202144
  O       3.654262     -1.523434      0.547209
  H       3.566340     -0.872191      1.255432
10
Coordinates from ORCA-job /home/rudenko/mopac_kie/for_orca/CH3NO2_H2O_near/orca/orca_start/start E -321.457265245083
  C       0.531292     -0.838516      0.332191
  H       0.652221     -1.741557     -0.260046
  H       0.949259      0.014004     -0.199005
  H       0.956059     -0.937319      1.324071
  N      -0.933276     -0.567450      0.457362
  O      -1.364608     -0.203711      1.539842
  O      -1.617717     -0.704421     -0.544207
  H       3.900504     -0.955683     -0.187465
  O       3.663477     -1.528504      0.552561
  H       3.564480     -0.920483      1.297986
10
Coordinates from ORCA-job /home/rudenko/mopac_kie/for_orca/CH3NO2_H2O_near/orca/orca_start/start E -321.457293743240
  C       0.540424     -0.839687      0.314785
  H       0.649232     -1.756515     -0.259352
  H       0.947506      0.000497     -0.244026
  H       0.985318     -0.915658      1.299986
  N      -0.921458     -0.566016      0.460940
  O      -1.337788     -0.202254      1.549185
  O      -1.619589     -0.701933     -0.531427
  H       3.816758     -0.903250     -0.164507
  O       3.680439     -1.531852      0.555614
  H       3.560849     -0.966972      1.332091
10
Coordinates from ORCA-job /home/rudenko/mopac_kie/for_orca/CH3NO2_H2O_near/orca/orca_start/start E -321.457336391892
  C       0.540721     -0.838176      0.296079
  H       0.638599     -1.765176     -0.264069
  H       0.936442     -0.006997     -0.284853
  H       1.004979     -0.894521      1.273845
  N      -0.918176     -0.565396      0.464439
  O      -1.319055     -0.202808      1.558809
  O      -1.631304     -0.701495     -0.517513
  H       3.762438     -0.869761     -0.140468
  O       3.708236     -1.531214      0.561276
  H       3.578811     -1.008096      1.365746
10
Coordinates from ORCA-job /home/rudenko/mopac_kie/for_orca/CH3NO2_H2O_near/orca/orca_start/start E -321.457380885254
  C       0.528750     -0.837993      0.289147
  H       0.622093     -1.766311     -0.265725
  H       0.922671     -0.006764     -0.293972
  H       0.997709     -0.884873      1.262453
  N      -0.927264     -0.564222      0.464485
  O      -1.324351     -0.206470      1.561732
  O      -1.645167     -0.694946     -0.515323
  H       3.760811     -0.870035     -0.131253
  O       3.761004     -1.533834      0.571153
  H       3.605433     -1.018190      1.370592
10
Coordinates from ORCA-job /home/rudenko/mopac_kie/for_orca/CH3NO2_H2O_near/orca/orca_start/start E -321.457417982169
  C       0.523654     -0.835700      0.284687
  H       0.614538     -1.766640     -0.265981
  H       0.920477     -0.008783     -0.303329
  H       0.986866     -0.879380      1.261721
  N      -0.932076     -0.563631      0.463912
  O      -1.324227     -0.203654      1.562497
  O      -1.655150     -0.698571     -0.511483
  H       3.769649     -0.861641     -0.127564
  O       3.776476     -1.531904      0.568176
  H       3.621483     -1.033737      1.380652
10
Coordinates from ORCA-job /home/rudenko/mopac_kie/for_orca/CH3NO2_H2O_near/orca/orca_start/start E -321.457440827223
  C       0.526193     -0.836407      0.279060
  H       0.613325     -1.773470     -0.262369
  H       0.921336     -0.017404     -0.320064
  H       0.992758     -0.871807      1.255983
  N      -0.928309     -0.561704      0.464135
  O      -1.315567     -0.201734      1.564550
  O      -1.655088     -0.695606     -0.508551
  H       3.728666     -0.842311     -0.113710
  O       3.795215     -1.526973      0.564006
  H       3.623161     -1.056224      1.390250
10
Coordinates from ORCA-job /home/rudenko/mopac_kie/for_orca/CH3NO2_H2O_near/orca/orca_start/start E -321.457473975619
  C       0.529205     -0.839321      0.294618
  H       0.622786     -1.774959     -0.247172
  H       0.937687     -0.021716     -0.295470
  H       0.978796     -0.883290      1.279126
  N      -0.926888     -0.559087      0.458831
  O      -1.329186     -0.198884      1.553807
  O      -1.638343     -0.689247     -0.525383
  H       3.710398     -0.848708     -0.132182
  O       3.802298     -1.521121      0.553624
  H       3.614937     -1.047306      1.373492
10
Coordinates from ORCA-job /home/rudenko/mopac_kie/for_orca/CH3NO2_H2O_near/orca/orca_start/start E -321.457514971873
  C       0.531844     -0.843141      0.328103
  H       0.637755     -1.772838     -0.219851
  H       0.965754     -0.021778     -0.239148
  H       0.948396     -0.906740      1.326024
  N      -0.927935     -0.555935      0.448386
  O      -1.362213     -0.196692      1.531294
  O      -1.607741     -0.680125     -0.558401
  H       3.707917     -0.873275     -0.175568
  O       3.807456     -1.516135      0.536329
  H       3.600457     -1.016979      1.336121
10
Coordinates from ORCA-job /home/rudenko/mopac_kie/for_orca/CH3NO2_H2O_near/orca/orca_start/start E -321.457550246513
  C       0.536767     -0.845623      0.360194
  H       0.652876     -1.771629     -0.194392
  H       0.992001     -0.022262     -0.184431
  H       0.924512     -0.922565      1.368636
  N      -0.925669     -0.553731      0.437469
  O      -1.390816     -0.197649      1.508210
  O      -1.575575     -0.671379     -0.589645
  H       3.687499     -0.897324     -0.215782
  O       3.813395     -1.508732      0.520212
  H       3.586702     -0.992747      1.302819
10
Coordinates from ORCA-job /home/rudenko/mopac_kie/for_orca/CH3NO2_H2O_near/orca/orca_start/start E -321.457563887136
  C       0.535262     -0.846308      0.367306
  H       0.655321     -1.769998     -0.190008
  H       0.994087     -0.019472     -0.171777
  H       0.915539     -0.923959      1.378488
  N      -0.927573     -0.553727      0.434699
  O      -1.398895     -0.198477      1.503040
  O      -1.572496     -0.670153     -0.595690
  H       3.693665     -0.905074     -0.224764
  O       3.819287     -1.509714      0.517242
  H       3.587493     -0.986758      1.294753
10
Coordinates from ORCA-job /home/rudenko/mopac_kie/for_orca/CH3NO2_H2O_near/orca/orca_start/start E -321.457569563814
  C       0.534447     -0.847230      0.369238
  H       0.658308     -1.769433     -0.190610
  H       0.992169     -0.017837     -0.167244
  H       0.912010     -0.921712      1.381627
  N      -0.928153     -0.554419      0.433404
  O      -1.400382     -0.198867      1.501451
  O      -1.573173     -0.669622     -0.597085
  H       3.695049     -0.908401     -0.227365
  O       3.821712     -1.510629      0.516811
  H       3.589704     -0.985491      1.293064
10
Coordinates from ORCA-job /home/rudenko/mopac_kie/for_orca/CH3NO2_H2O_near/orca/orca_start/start E -321.457571910520
  C       0.535115     -0.847680      0.372310
  H       0.660941     -1.768954     -0.188467
  H       0.994634     -0.017771     -0.161817
  H       0.909870     -0.922695      1.385902
  N      -0.927417     -0.554521      0.432282
  O      -1.402429     -0.198482      1.499063
  O      -1.569491     -0.669423     -0.600022
  H       3.690863     -0.910347     -0.230581
  O       3.821610     -1.510052      0.514726
  H       3.587994     -0.983715      1.289894
10
Coordinates from ORCA-job /home/rudenko/mopac_kie/for_orca/CH3NO2_H2O_near/orca/orca_start/start E -321.457573942076
  C       0.535409     -0.848174      0.375179
  H       0.663431     -1.767959     -0.187339
  H       0.996675     -0.017346     -0.155715
  H       0.907167     -0.924715      1.389881
  N      -0.927007     -0.554593      0.431385
  O      -1.404381     -0.197107      1.496760
  O      -1.566403     -0.670284     -0.602400
  H       3.690473     -0.912507     -0.234229
  O       3.819461     -1.509933      0.513006
  H       3.586865     -0.981022      1.286762
10
Coordinates from ORCA-job /home/rudenko/mopac_kie/for_orca/CH3NO2_H2O_near/orca/orca_start/start E -321.457574781537
  C       0.535812     -0.848640      0.375315
  H       0.664696     -1.767819     -0.187750
  H       0.997371     -0.017484     -0.154761
  H       0.906749     -0.925338      1.390220
  N      -0.926415     -0.554555      0.431173
  O      -1.403536     -0.194674      1.495921
  O      -1.565700     -0.672207     -0.602371
  H       3.686130     -0.910535     -0.233387
  O       3.818783     -1.509674      0.511750
  H       3.587799     -0.982715      1.287178
10
Coordinates from ORCA-job /home/rudenko/mopac_kie/for_orca/CH3NO2_H2O_near/orca/orca_start/start E -321.457577873121
  C       0.536192     -0.849783      0.378258
  H       0.667609     -1.766568     -0.187795
  H       1.000406     -0.016920     -0.146738
  H       0.902671     -0.930024      1.394431
  N      -0.925919     -0.554344      0.429943
  O      -1.404465     -0.187862      1.491814
  O      -1.563187     -0.677241     -0.604110
  H       3.682584     -0.908775     -0.235554
  O       3.815621     -1.509537      0.508113
  H       3.590178     -0.982587      1.284927
10
Coordinates from ORCA-job /home/rudenko/mopac_kie/for_orca/CH3NO2_H2O_near/orca/orca_start/start E -321.457584190075
  C       0.536577     -0.852193      0.384556
  H       0.672498     -1.763213     -0.189034
  H       1.006594     -0.014615     -0.127846
  H       0.893873     -0.942062      1.403059
  N      -0.925406     -0.553860      0.427032
  O      -1.406516     -0.170816      1.481757
  O      -1.559275     -0.690409     -0.607290
  H       3.676091     -0.904444     -0.239903
  O       3.808408     -1.509685      0.500199
  H       3.598844     -0.982344      1.280758
