!  NUMFREQ B3LYP def2-TZVP CPCM D3 
%pal nprocs 102 end
%cpcm epsilon 78.4 end 
*xyz -1 1 
C   -1.60228834747957 0.47897999035439 -0.26152763630446
H   -0.37704026936519 1.08296697666949 -0.31464389176868
N   -1.41269685395788 -0.40648923350226 0.82198910750347
O   -0.9967214394392 -1.56795543792309 0.61319899318336
O   -1.57721889199799 0.00244481555988 1.99350399171201
C   2.59052661320878 -0.94798206258323 0.13660846279247
O   2.24930315529348 0.11015784227105 0.83939835932633
O   2.2863092084579 -1.11883848750216 -1.03650415344902
C   3.3936898799412 -1.94983992655322 0.92787756415296
H   3.72280783108027 -2.7654752415294 0.28882622798312
H   2.77527263503175 -2.34647878948449 1.73600966677062
H   4.25563340713201 -1.46215154013856 1.38549724588675
C   -2.57045590339191 1.60682781863808 0.03287250703565
H   -2.26247054995737 2.19463390601801 0.89583284208799
H   -3.58615661658174 1.23797680233912 0.21801853821287
H   -2.60714052518496 2.26955778251664 -0.83284267311858
C   -1.78059767420839 -0.21274874657993 -1.59549382913941
H   -2.70247746954954 -0.80518012898346 -1.63366043222123
H   -0.94627093481215 -0.87301200700365 -1.82572389544181
H   -1.83788464316604 0.54622896421985 -2.37705314070787
H   1.62066048224758 0.78680287989155 0.2997646324627
O   0.73755149580137 1.65773124199943 -0.40181130602227
H   0.62766541089758 2.48184258130593 0.08986281906303
*
