27
	Energy:    -222.2786400
C         -0.80163        1.17051        0.01907
C          0.54035        1.16033        0.37713
C          1.29307       -0.01788        0.28723
C          0.68731       -1.19598       -0.15115
C         -0.65869       -1.20598       -0.50678
C         -1.39351       -0.01991       -0.42119
H         -1.38705        2.09519        0.08186
H          1.00541        2.08900        0.72489
H          1.25280       -2.12993       -0.22492
C          2.74452        0.03205        0.69523
H          2.82647        0.51968        1.73239
C          3.44606       -1.31770        0.75773
H          4.49308       -1.22253        1.08750
H          3.46042       -1.84483       -0.20655
H          2.94865       -1.98081        1.48567
N          3.51499        0.91132       -0.24424
O          4.68449        1.14756        0.01828
O          2.96521        1.37036       -1.23099
O          2.54270        1.26596        5.95487
H          2.20381        0.59550        6.48792
H         -1.13127       -2.13339       -0.84833
N         -2.78709       -0.02162       -0.79634
O         -3.32580       -1.08020       -1.09529
O         -3.40525        1.03586       -0.80857
H          1.60852        0.09085        3.54568
H          2.52788        0.74038        4.75983
O          2.51578        0.26073        3.71071
