31
	Energy:     -65.7953200
C         -1.15221       -0.24103        0.10912
H         -2.24064       -0.16735        0.17506
N         -1.55111       -2.63050        0.62327
O         -2.71940       -2.35622        0.84325
O         -1.17063       -3.78668        0.51242
H          0.68154        0.75282       -0.36611
C         -0.54992       -1.55129        0.50604
H          0.24954       -1.87383       -0.21400
H         -0.03153       -1.45813        1.50522
C         -0.39721        0.78057       -0.28981
H         -0.80484        1.74149       -0.57422
C          5.75176       -2.96092        0.89320
C          7.08124       -3.13201        0.48530
C          7.75401       -2.02612       -0.05890
C          7.03926       -0.83944       -0.24741
C          5.69890       -0.77335        0.14353
N          5.06814       -1.81229        0.72459
H          5.20488       -3.78099        1.38105
H          7.51744        0.03155       -0.69444
H          5.10074        0.13601       -0.00082
C          7.69067       -4.47863        0.61944
H          8.78849       -4.45942        0.66666
H          7.42233       -5.11410       -0.24369
H          7.34396       -5.01017        1.51988
C          9.19777       -2.08971       -0.40057
H          9.59717       -1.13633       -0.77738
H          9.41421       -2.85166       -1.16719
H          9.80353       -2.35722        0.48369
H          3.15839       -3.25725        0.91454
O          2.91309       -3.70763        0.09565
H          3.48266       -3.29511       -0.56449
