31
Coordinates from ORCA-job neb E -725.684138543641
  C      -3.277749      1.634901      0.179368
  H      -4.122680      2.038139     -0.366524
  N      -4.927781      0.214924      1.325127
  O      -5.819762      0.680822      0.604747
  O      -5.192026     -0.504150      2.300333
  H      -1.203808      1.795804      0.554406
  C      -3.544831      0.447894      1.010164
  H      -3.042142     -0.579362      0.360298
  H      -2.983558      0.381562      1.938859
  C      -2.067863      2.168777      0.017867
  H      -1.904020      2.977068     -0.682037
  C       1.187598     -1.542769      0.004981
  C       2.493464     -1.078850      0.011777
  C       2.743546      0.201747     -0.519198
  C       1.690358      0.874096     -1.137440
  C       0.432616      0.309803     -1.181481
  N       0.190304     -0.857066     -0.574699
  H       0.916574     -2.482882      0.466472
  H       1.851256      1.842876     -1.590110
  H      -0.401192      0.776939     -1.682997
  C       3.611253     -1.939865      0.520148
  H       4.138131     -1.482708      1.360307
  H       4.347199     -2.079391     -0.276561
  H       3.247140     -2.920070      0.823142
  C       4.109951      0.811130     -0.451221
  H       4.098461      1.847045     -0.785868
  H       4.809023      0.251451     -1.078636
  H       4.505370      0.774671      0.566573
  H      -0.879646     -1.202593     -0.491325
  O      -2.266990     -1.521363     -0.222538
  H      -2.738195     -1.838579     -1.003936
31
Coordinates from ORCA-job neb E -725.685409955108
  C      -3.349318      1.654601      0.195147
  H      -4.206373      2.018390     -0.359429
  N      -4.937914      0.149075      1.317460
  O      -5.846596      0.568253      0.588498
  O      -5.172530     -0.595795      2.281639
  H      -1.294919      1.929727      0.611570
  C      -3.568112      0.450425      1.014132
  H      -3.026973     -0.557904      0.356831
  H      -3.007122      0.397313      1.943336
  C      -2.169164      2.259225      0.063111
  H      -2.041650      3.091449     -0.616372
  C       1.197654     -1.529682      0.009455
  C       2.510040     -1.086436      0.012591
  C       2.782685      0.178446     -0.544459
  C       1.739480      0.862164     -1.167519
  C       0.470281      0.323111     -1.195039
  N       0.211370     -0.833824     -0.576145
  H       0.910963     -2.459533      0.481814
  H       1.916904      1.820852     -1.635318
  H      -0.358103      0.800050     -1.696061
  C       3.609156     -1.951527      0.553380
  H       4.134394     -1.479548      1.386364
  H       4.350744     -2.125299     -0.231079
  H       3.225673     -2.916549      0.880390
  C       4.160802      0.761379     -0.493688
  H       4.168167      1.790463     -0.848693
  H       4.846010      0.175554     -1.112730
  H       4.559083      0.736543      0.523190
  H      -0.855668     -1.165349     -0.490957
  O      -2.246928     -1.476557     -0.232305
  H      -2.712035     -1.789016     -1.019117
31
Coordinates from ORCA-job neb E -725.685974825715
  C      -3.361855      1.654824      0.185804
  H      -4.224761      2.002629     -0.369893
  N      -4.928131      0.132874      1.325038
  O      -5.844066      0.534820      0.597972
  O      -5.145848     -0.606168      2.295659
  H      -1.312549      1.964059      0.602611
  C      -3.559516      0.446902      1.008624
  H      -3.028781     -0.545333      0.360736
  H      -2.995462      0.410668      1.938089
  C      -2.192362      2.279081      0.054273
  H      -2.079297      3.115296     -0.622984
  C       1.198284     -1.530082      0.003503
  C       2.511670     -1.090227      0.010290
  C       2.788571      0.173997     -0.545880
  C       1.745868      0.866788     -1.159697
  C       0.473768      0.334186     -1.183000
  N       0.213375     -0.827943     -0.575432
  H       0.909611     -2.462655      0.469693
  H       1.925752      1.827476     -1.622510
  H      -0.355737      0.820270     -1.674015
  C       3.605426     -1.956005      0.560431
  H       4.126412     -1.481325      1.394532
  H       4.351420     -2.136096     -0.218314
  H       3.216901     -2.918052      0.890365
  C       4.169866      0.749051     -0.500222
  H       4.181154      1.778274     -0.854622
  H       4.849198      0.159852     -1.122524
  H       4.571725      0.721175      0.515078
  H      -0.868108     -1.164400     -0.491815
  O      -2.238365     -1.476759     -0.240703
  H      -2.704166     -1.777177     -1.031085
31
Coordinates from ORCA-job neb E -725.686991406546
  C      -3.350445      1.645447      0.154791
  H      -4.219215      1.963804     -0.409501
  N      -4.882593      0.116761      1.339691
  O      -5.813139      0.488846      0.616613
  O      -5.074137     -0.599319      2.331948
  H      -1.308920      2.006722      0.572463
  C      -3.522337      0.446519      0.997364
  H      -3.011181     -0.540740      0.355710
  H      -2.941355      0.429747      1.916542
  C      -2.195920      2.296542      0.020603
  H      -2.102995      3.133049     -0.659415
  C       1.186395     -1.538625     -0.009475
  C       2.498769     -1.096828      0.005701
  C       2.775519      0.172278     -0.539278
  C       1.728524      0.881537     -1.126539
  C       0.453696      0.355211     -1.142664
  N       0.199464     -0.824049     -0.567398
  H       0.899717     -2.482548      0.434777
  H       1.906771      1.850979     -1.571436
  H      -0.382718      0.858883     -1.604604
  C       3.587887     -1.960808      0.567062
  H       4.096609     -1.482301      1.406575
  H       4.344160     -2.143157     -0.201016
  H       3.195716     -2.921499      0.896630
  C       4.159919      0.739643     -0.503160
  H       4.172608      1.771361     -0.850021
  H       4.829617      0.151572     -1.136850
  H       4.571364      0.701690      0.507880
  H      -0.883006     -1.168706     -0.493047
  O      -2.227572     -1.487287     -0.254926
  H      -2.691205     -1.764724     -1.055016
31
Coordinates from ORCA-job neb E -725.687895281567
  C      -3.370959      1.644501      0.129613
  H      -4.235688      1.902267     -0.470910
  N      -4.848358      0.076117      1.332345
  O      -5.787948      0.377129      0.586383
  O      -5.014536     -0.628154      2.339196
  H      -1.364897      2.125166      0.602748
  C      -3.507510      0.457470      0.991033
  H      -2.986685     -0.536728      0.348949
  H      -2.915079      0.460539      1.901887
  C      -2.250289      2.358014      0.021222
  H      -2.185097      3.193295     -0.663719
  C       1.184945     -1.537923     -0.008593
  C       2.499698     -1.105687      0.003706
  C       2.784081      0.161156     -0.542723
  C       1.735699      0.893235     -1.099046
  C       0.453270      0.386047     -1.092955
  N       0.199613     -0.804828     -0.542777
  H       0.893908     -2.489174      0.416720
  H       1.918735      1.866212     -1.534170
  H      -0.389685      0.912472     -1.516526
  C       3.578539     -1.973931      0.577192
  H       4.080894     -1.487132      1.415893
  H       4.341396     -2.173830     -0.179564
  H       3.174102     -2.925498      0.918211
  C       4.177420      0.705589     -0.536163
  H       4.200006      1.734303     -0.890992
  H       4.825037      0.101665     -1.177888
  H       4.606190      0.667375      0.467521
  H      -0.878396     -1.150587     -0.476054
  O      -2.232029     -1.479097     -0.253258
  H      -2.686379     -1.729985     -1.067280
31
Coordinates from ORCA-job neb E -725.688692788955
  C      -3.424523      1.646091      0.098497
  H      -4.264330      1.793960     -0.570804
  N      -4.805704      0.002812      1.308013
  O      -5.755651      0.223238      0.543605
  O      -4.948332     -0.652584      2.353365
  H      -1.517440      2.349553      0.691252
  C      -3.498595      0.472652      0.979654
  H      -2.941952     -0.530306      0.337014
  H      -2.902200      0.514046      1.886022
  C      -2.378631      2.471677      0.043432
  H      -2.353492      3.293655     -0.660225
  C       1.189823     -1.533655      0.006109
  C       2.510366     -1.121359      0.005277
  C       2.807899      0.139824     -0.546738
  C       1.761830      0.901885     -1.066410
  C       0.469288      0.422688     -1.030834
  N       0.209512     -0.775637     -0.500670
  H       0.889162     -2.489704      0.413360
  H       1.955308      1.875145     -1.496159
  H      -0.376903      0.975803     -1.411052
  C       3.577567     -2.002436      0.580331
  H       4.085735     -1.508215      1.411533
  H       4.337632     -2.228636     -0.171203
  H       3.156317     -2.939736      0.940062
  C       4.213731      0.648274     -0.582673
  H       4.254062      1.667471     -0.962067
  H       4.830733      0.012462     -1.223652
  H       4.662697      0.621204      0.412574
  H      -0.861607     -1.119239     -0.444067
  O      -2.223570     -1.463399     -0.253105
  H      -2.658732     -1.667535     -1.090441
31
Coordinates from ORCA-job neb E -725.688118852976
  C      -3.429901      1.644304      0.022552
  H      -4.215185      1.651540     -0.724627
  N      -4.715212     -0.010257      1.321584
  O      -5.640959      0.004400      0.497090
  O      -4.791179     -0.684102      2.362356
  H      -1.666947      2.592072      0.714369
  C      -3.441077      0.514941      0.959480
  H      -2.889914     -0.511619      0.339583
  H      -2.828670      0.620835      1.849108
  C      -2.477999      2.578268     -0.005756
  H      -2.479650      3.353766     -0.760794
  C       1.175391     -1.542706      0.023861
  C       2.499616     -1.143180      0.005600
  C       2.796555      0.128881     -0.520119
  C       1.745182      0.928342     -0.968174
  C       0.447312      0.466477     -0.902245
  N       0.191865     -0.753809     -0.424175
  H       0.874153     -2.515408      0.389583
  H       1.939502      1.914497     -1.366909
  H      -0.407681      1.051713     -1.209670
  C       3.567666     -2.047509      0.541177
  H       4.092985     -1.564747      1.368880
  H       4.313438     -2.277367     -0.222816
  H       3.139875     -2.981179      0.902713
  C       4.209650      0.610342     -0.602192
  H       4.258182      1.622203     -0.999387
  H       4.796203     -0.048562     -1.247977
  H       4.683814      0.590261      0.381704
  H      -0.887207     -1.110162     -0.383562
  O      -2.225056     -1.480525     -0.237677
  H      -2.634754     -1.601709     -1.103560
31
Coordinates from ORCA-job neb E -725.687928758075
  C      -3.464382      1.615121     -0.048889
  H      -4.153181      1.463294     -0.872549
  N      -4.598316     -0.086264      1.330825
  O      -5.580746     -0.075389      0.569002
  O      -4.664453     -0.596624      2.464628
  H      -1.980489      2.878877      0.775904
  C      -3.375887      0.523137      0.925132
  H      -2.813766     -0.518375      0.300717
  H      -2.741855      0.696336      1.789112
  C      -2.688342      2.700140     -0.025711
  H      -2.736101      3.439105     -0.815450
  C       1.174834     -1.554293      0.028053
  C       2.504544     -1.172579      0.001396
  C       2.811539      0.106690     -0.499836
  C       1.765218      0.937130     -0.900766
  C       0.460928      0.494818     -0.819658
  N       0.195544     -0.736367     -0.375807
  H       0.864694     -2.533883      0.366900
  H       1.969046      1.930519     -1.276029
  H      -0.392199      1.104085     -1.083567
  C       3.567123     -2.100212      0.507677
  H       4.113857     -1.629562      1.328786
  H       4.296327     -2.338520     -0.269257
  H       3.130006     -3.028095      0.873031
  C       4.231814      0.564709     -0.598692
  H       4.295776      1.557988     -1.038193
  H       4.810938     -0.130728     -1.211429
  H       4.701412      0.580859      0.387955
  H      -0.890194     -1.097454     -0.360431
  O      -2.221317     -1.494745     -0.280418
  H      -2.592374     -1.499716     -1.172436
31
Coordinates from ORCA-job neb E -725.689369361871
  C      -3.435042      1.625450     -0.017224
  H      -4.178928      1.557787     -0.803274
  N      -4.665340     -0.031200      1.331379
  O      -5.625882      0.010807      0.546932
  O      -4.744860     -0.618313      2.424148
  H      -1.796745      2.725921      0.746690
  C      -3.406522      0.515975      0.943657
  H      -2.852612     -0.521313      0.325799
  H      -2.788086      0.657758      1.824310
  C      -2.560173      2.632123     -0.017785
  H      -2.578843      3.388632     -0.791869
  C       1.175954     -1.555154      0.022301
  C       2.501636     -1.159314     -0.000726
  C       2.797992      0.120614     -0.507521
  C       1.745955      0.926769     -0.941533
  C       0.447431      0.465703     -0.876544
  N       0.190316     -0.757664     -0.406528
  H       0.874931     -2.529599      0.383442
  H       1.940433      1.917460     -1.328849
  H      -0.407274      1.054258     -1.179057
  C       3.573022     -2.074740      0.509286
  H       4.115719     -1.604574      1.332967
  H       4.304479     -2.299370     -0.270082
  H       3.146809     -3.010780      0.866540
  C       4.211290      0.604902     -0.578408
  H       4.263425      1.607146     -0.998952
  H       4.812181     -0.067888     -1.195614
  H       4.667178      0.612147      0.414613
  H      -0.892703     -1.118605     -0.372264
  O      -2.220986     -1.503960     -0.253112
  H      -2.614756     -1.570979     -1.132725
31
Coordinates from ORCA-job neb E -725.689479091193
  C      -3.417896      1.626038      0.009782
  H      -4.204077      1.623156     -0.736513
  N      -4.692013     -0.013943      1.338517
  O      -5.657550      0.088538      0.568120
  O      -4.776908     -0.634758      2.410328
  H      -1.676242      2.603841      0.708565
  C      -3.416847      0.500504      0.954016
  H      -2.873623     -0.525094      0.331177
  H      -2.800498      0.618545      1.839891
  C      -2.482067      2.575767     -0.016716
  H      -2.491253      3.348780     -0.774458
  C       1.172516     -1.550917      0.013658
  C       2.496083     -1.147946     -0.000835
  C       2.790231      0.130128     -0.513948
  C       1.738551      0.920724     -0.976425
  C       0.442847      0.450149     -0.925447
  N       0.186258     -0.766253     -0.437138
  H       0.873809     -2.519624      0.391764
  H       1.930694      1.907814     -1.374053
  H      -0.409460      1.024995     -1.259158
  C       3.568713     -2.054447      0.522208
  H       4.104820     -1.582391      1.348887
  H       4.305650     -2.273903     -0.253783
  H       3.146469     -2.993969      0.875026
  C       4.199349      0.628957     -0.560911
  H       4.246714      1.636879     -0.968339
  H       4.816407     -0.029526     -1.177648
  H       4.641487      0.629357      0.438333
  H      -0.897100     -1.124823     -0.393599
  O      -2.228803     -1.502048     -0.255262
  H      -2.636263     -1.594528     -1.126039
31
Coordinates from ORCA-job neb E -725.689503390540
  C      -3.418504      1.627251      0.015504
  H      -4.217277      1.627362     -0.717375
  N      -4.670037     -0.019491      1.359233
  O      -5.650388      0.087149      0.607932
  O      -4.733497     -0.652819      2.425436
  H      -1.663199      2.600225      0.686498
  C      -3.402163      0.498562      0.955513
  H      -2.865556     -0.526485      0.319050
  H      -2.772423      0.614739      1.832099
  C      -2.480917      2.574914     -0.025605
  H      -2.500993      3.349156     -0.781828
  C       1.164704     -1.549763      0.007759
  C       2.488226     -1.146867      0.001088
  C       2.785609      0.130311     -0.512514
  C       1.737139      0.919456     -0.984679
  C       0.441228      0.448875     -0.941319
  N       0.181601     -0.766175     -0.451456
  H       0.863337     -2.517079      0.387398
  H       1.931851      1.905606     -1.383374
  H      -0.408877      1.022698     -1.282308
  C       3.557279     -2.052510      0.532654
  H       4.088675     -1.578923      1.361458
  H       4.298660     -2.273869     -0.238557
  H       3.132586     -2.991158      0.884866
  C       4.194628      0.629991     -0.548828
  H       4.244941      1.636193     -0.960118
  H       4.818313     -0.030735     -1.156356
  H       4.626861      0.635372      0.454764
  H      -0.901212     -1.124360     -0.412245
  O      -2.231595     -1.501844     -0.281014
  H      -2.638999     -1.575782     -1.153677
31
Coordinates from ORCA-job neb E -725.688764165010
  C      -3.550742      1.623023      0.137259
  H      -4.557868      1.593512     -0.264799
  N      -4.139029     -0.209264      1.701401
  O      -5.336172     -0.121791      1.390281
  O      -3.763110     -0.939361      2.634348
  H      -1.723367      2.686133      0.190020
  C      -3.133816      0.463315      0.935042
  H      -2.752633     -0.472626      0.085325
  H      -2.267747      0.617201      1.573314
  C      -2.735774      2.625645     -0.194480
  H      -3.057698      3.415031     -0.861145
  C       1.035909     -1.497034     -0.095599
  C       2.364218     -1.137737      0.045713
  C       2.766281      0.107903     -0.474028
  C       1.816117      0.902035     -1.115389
  C       0.509157      0.472426     -1.215482
  N       0.146557     -0.706267     -0.706341
  H       0.652559     -2.431431      0.293708
  H       2.094954      1.860798     -1.530818
  H      -0.270287      1.054316     -1.686923
  C       3.328136     -2.057789      0.730731
  H       3.780258     -1.571167      1.598144
  H       4.142720     -2.335626      0.058027
  H       2.828878     -2.966187      1.063898
  C       4.181063      0.570172     -0.334781
  H       4.326465      1.540022     -0.806154
  H       4.870769     -0.150119     -0.780621
  H       4.448957      0.649227      0.722468
  H      -0.972928     -1.031965     -0.753796
  O      -2.308840     -1.368090     -0.743134
  H      -2.722988     -1.184301     -1.596189
31
Coordinates from ORCA-job neb E -725.689410390974
  C      -3.469135      1.626710      0.064662
  H      -4.395797      1.627711     -0.498398
  N      -4.403199     -0.102492      1.559121
  O      -5.514577      0.012612      1.022252
  O      -4.241504     -0.795034      2.577653
  H      -1.631816      2.618621      0.405650
  C      -3.248553      0.477031      0.950505
  H      -2.799926     -0.513372      0.195165
  H      -2.479152      0.598806      1.706807
  C      -2.571011      2.592335     -0.136246
  H      -2.748343      3.382252     -0.854673
  C       1.093087     -1.532633     -0.049751
  C       2.418998     -1.143390      0.022539
  C       2.760830      0.125705     -0.483516
  C       1.753212      0.918171     -1.032594
  C       0.452617      0.459440     -1.068023
  N       0.149431     -0.746051     -0.580750
  H       0.758035     -2.491531      0.323125
  H       1.983525      1.896794     -1.430819
  H      -0.367236      1.036252     -1.472419
  C       3.443909     -2.055758      0.624942
  H       3.932262     -1.580345      1.478842
  H       4.225986     -2.293595     -0.099822
  H       2.987967     -2.985869      0.960380
  C       4.173393      0.613984     -0.429182
  H       4.264543      1.605722     -0.867692
  H       4.838063     -0.071083     -0.961094
  H       4.523793      0.652080      0.605497
  H      -0.945319     -1.095099     -0.593870
  O      -2.268354     -1.459176     -0.533158
  H      -2.675730     -1.378801     -1.405133
31
Coordinates from ORCA-job neb E -725.689496454473
  C      -3.437044      1.625318      0.039181
  H      -4.327804      1.631157     -0.578506
  N      -4.484365     -0.064963      1.500392
  O      -5.556850      0.051339      0.890028
  O      -4.398849     -0.731677      2.544792
  H      -1.613693      2.602395      0.483260
  C      -3.286132      0.482378      0.949498
  H      -2.822689     -0.526046      0.233244
  H      -2.552865      0.595777      1.742166
  C      -2.519115      2.581007     -0.113330
  H      -2.645708      3.367129     -0.846537
  C       1.114178     -1.544971     -0.032459
  C       2.438282     -1.145550      0.014713
  C       2.759179      0.131203     -0.485596
  C       1.732898      0.922257     -1.000910
  C       0.435539      0.453659     -1.011973
  N       0.152320     -0.760048     -0.532764
  H       0.795612     -2.511606      0.334895
  H       1.946298      1.907757     -1.391708
  H      -0.397634      1.029079     -1.390284
  C       3.483735     -2.054901      0.585772
  H       3.986010     -1.583795      1.433972
  H       4.252225     -2.278044     -0.157826
  H       3.043355     -2.992477      0.921210
  C       4.169349      0.628772     -0.461896
  H       4.242102      1.626695     -0.889690
  H       4.822969     -0.044440     -1.022045
  H       4.548800      0.655183      0.562786
  H      -0.940436     -1.117390     -0.534011
  O      -2.268102     -1.491395     -0.454996
  H      -2.671562     -1.443805     -1.331379
31
Coordinates from ORCA-job neb E -725.689074848889
  C      -3.326226      1.629263     -0.014401
  H      -3.928052      1.607196     -0.915002
  N      -4.889544      0.052739      1.042886
  O      -5.639257      0.105793      0.055434
  O      -5.247506     -0.491201      2.101404
  H      -1.762471      2.621960      1.013282
  C      -3.551296      0.530763      0.934881
  H      -2.915984     -0.536351      0.460932
  H      -3.121681      0.648598      1.924227
  C      -2.398729      2.575862      0.136047
  H      -2.238215      3.324445     -0.629437
  C       1.232569     -1.564741      0.115160
  C       2.546705     -1.150185     -0.008119
  C       2.788922      0.132219     -0.537798
  C       1.695417      0.919488     -0.897370
  C       0.412579      0.438333     -0.742410
  N       0.205080     -0.785357     -0.246626
  H       0.975667     -2.540902      0.503939
  H       1.845514      1.911479     -1.301044
  H      -0.467260      1.008411     -1.002745
  C       3.667830     -2.051192      0.412939
  H       4.271511     -1.582184      1.193290
  H       4.334977     -2.256205     -0.427636
  H       3.286275     -2.997739      0.791825
  C       4.185231      0.635757     -0.719370
  H       4.189106      1.646823     -1.121889
  H       4.736555     -0.014952     -1.403408
  H       4.729034      0.628815      0.228173
  H      -0.854284     -1.146156     -0.154596
  O      -2.195915     -1.544813      0.037464
  H      -2.566551     -1.755966     -0.830033
31
Coordinates from ORCA-job neb E -725.689523793632
  C      -3.396251      1.628042      0.007861
  H      -4.178455      1.633884     -0.742512
  N      -4.695466     -0.006487      1.318862
  O      -5.650275      0.096593      0.534449
  O      -4.797704     -0.627259      2.389814
  H      -1.646424      2.588243      0.712494
  C      -3.413685      0.502355      0.951175
  H      -2.867831     -0.534153      0.335329
  H      -2.806196      0.615027      1.843818
  C      -2.449793      2.567555     -0.015924
  H      -2.447597      3.339353     -0.774853
  C       1.170286     -1.553647      0.025209
  C       2.492374     -1.146831      0.001007
  C       2.778962      0.134200     -0.509450
  C       1.721110      0.922721     -0.961231
  C       0.427701      0.447161     -0.903536
  N       0.177978     -0.771189     -0.416297
  H       0.878093     -2.524274      0.403509
  H       1.906805      1.911917     -1.356628
  H      -0.427968      1.019791     -1.232072
  C       3.572666     -2.053350      0.508022
  H       4.118403     -1.584996      1.330383
  H       4.300122     -2.266580     -0.278658
  H       3.156996     -2.996003      0.860392
  C       4.185911      0.637743     -0.565609
  H       4.227697      1.643928     -0.978000
  H       4.803223     -0.021312     -1.181357
  H       4.632156      0.645277      0.431887
  H      -0.902591     -1.132501     -0.372472
  O      -2.237665     -1.522480     -0.243357
  H      -2.632583     -1.592729     -1.122256
31
Coordinates from ORCA-job neb E -725.689478142990
  C      -3.450133      1.627092      0.041387
  H      -4.345405      1.622553     -0.570170
  N      -4.465371     -0.077779      1.507222
  O      -5.545481      0.031175      0.908962
  O      -4.362086     -0.751005      2.545869
  H      -1.635516      2.625015      0.473518
  C      -3.278311      0.485138      0.948256
  H      -2.809405     -0.519373      0.225690
  H      -2.541946      0.607267      1.736562
  C      -2.544207      2.593092     -0.117545
  H      -2.684289      3.377437     -0.850244
  C       1.109556     -1.541397     -0.032985
  C       2.434875     -1.146589      0.017748
  C       2.761931      0.127612     -0.485014
  C       1.740379      0.920909     -1.006350
  C       0.441204      0.457129     -1.020094
  N       0.152418     -0.754263     -0.538634
  H       0.786112     -2.505605      0.336385
  H       1.958790      1.904159     -1.400039
  H      -0.388856      1.034261     -1.402238
  C       3.474511     -2.058075      0.595715
  H       3.975694     -1.585408      1.443695
  H       4.244745     -2.288115     -0.144061
  H       3.028683     -2.992077      0.933703
  C       4.173832      0.620035     -0.457471
  H       4.252108      1.615724     -0.889397
  H       4.827997     -0.058194     -1.010779
  H       4.547920      0.649988      0.569127
  H      -0.939210     -1.109046     -0.541438
  O      -2.259371     -1.482670     -0.470299
  H      -2.661166     -1.428989     -1.347081
31
Coordinates from ORCA-job neb E -725.689540932005
  C      -3.431169      1.627683      0.029982
  H      -4.293751      1.633577     -0.626583
  N      -4.550632     -0.052407      1.447693
  O      -5.592436      0.061507      0.785593
  O      -4.517332     -0.712006      2.499590
  H      -1.624395      2.599866      0.547634
  C      -3.326131      0.488977      0.951480
  H      -2.832289     -0.526100      0.262975
  H      -2.630711      0.604098      1.777240
  C      -2.503405      2.578821     -0.087353
  H      -2.594515      3.360949     -0.830053
  C       1.130656     -1.544972     -0.013230
  C       2.455218     -1.145519      0.012382
  C       2.768089      0.131382     -0.492722
  C       1.733428      0.922642     -0.990819
  C       0.436056      0.454020     -0.981167
  N       0.160793     -0.759976     -0.497764
  H       0.818295     -2.511685      0.359092
  H       1.940281      1.908173     -1.384981
  H      -0.403073      1.029152     -1.346287
  C       3.509728     -2.055358      0.565605
  H       4.026511     -1.584886      1.405350
  H       4.265453     -2.278578     -0.191051
  H       3.074676     -2.992919      0.907917
  C       4.178594      0.628409     -0.492947
  H       4.243688      1.628179     -0.917664
  H       4.821492     -0.042426     -1.068204
  H       4.577142      0.650103      0.524526
  H      -0.928444     -1.117796     -0.485218
  O      -2.256112     -1.498719     -0.395840
  H      -2.655705     -1.484193     -1.275174
31
Coordinates from ORCA-job neb E -725.689540566348
  C      -3.434279      1.628124      0.032195
  H      -4.298480      1.633948     -0.622234
  N      -4.548337     -0.056109      1.449723
  O      -5.591313      0.054785      0.788748
  O      -4.512282     -0.715086      2.502116
  H      -1.626173      2.600945      0.544706
  C      -3.325804      0.488629      0.952147
  H      -2.830760     -0.525003      0.260876
  H      -2.629260      0.604061      1.776888
  C      -2.507227      2.579699     -0.087478
  H      -2.600839      3.362063     -0.829627
  C       1.129715     -1.543405     -0.012453
  C       2.454620     -1.145168      0.013495
  C       2.769029      0.130848     -0.492880
  C       1.735417      0.922506     -0.992534
  C       0.437616      0.455114     -0.983226
  N       0.160899     -0.758080     -0.498601
  H       0.816241     -2.509422      0.360734
  H       1.943454      1.907357     -1.387778
  H      -0.400628      1.030531     -1.349889
  C       3.508031     -2.055535      0.567930
  H       4.025129     -1.584770      1.407314
  H       4.263678     -2.280266     -0.188352
  H       3.071932     -2.992303      0.911053
  C       4.180032      0.626427     -0.493064
  H       4.246406      1.625375     -0.919508
  H       4.822607     -0.046065     -1.066739
  H       4.578018      0.649540      0.524611
  H      -0.928005     -1.115032     -0.487158
  O      -2.255559     -1.496040     -0.400581
  H      -2.653877     -1.477670     -1.280436
31
Coordinates from ORCA-job neb E -725.689541479271
  C      -3.435901      1.628279      0.033484
  H      -4.300451      1.635041     -0.620498
  N      -4.550385     -0.057700      1.448629
  O      -5.592279      0.051380      0.785652
  O      -4.515363     -0.716028      2.501488
  H      -1.626705      2.599838      0.545024
  C      -3.327661      0.488335      0.952856
  H      -2.831089     -0.524209      0.261261
  H      -2.632245      0.603847      1.778544
  C      -2.508274      2.579262     -0.086462
  H      -2.601979      3.362031     -0.828173
  C       1.130038     -1.542263     -0.011137
  C       2.455196     -1.144838      0.013938
  C       2.770216      0.130600     -0.493510
  C       1.736892      0.922471     -0.993425
  C       0.438831      0.455828     -0.983373
  N       0.161509     -0.756774     -0.497595
  H       0.816140     -2.507780      0.362987
  H       1.945362      1.906902     -1.389492
  H      -0.399115      1.031427     -1.350430
  C       3.508320     -2.055500      0.568439
  H       4.026320     -1.584498      1.407128
  H       4.263294     -2.281273     -0.188212
  H       3.071817     -2.991734      0.912499
  C       4.181509      0.625319     -0.494621
  H       4.248312      1.623888     -0.921889
  H       4.823441     -0.047999     -1.068052
  H       4.579977      0.649005      0.522851
  H      -0.927569     -1.113264     -0.486124
  O      -2.255427     -1.494668     -0.400752
  H      -2.652731     -1.474922     -1.281036
