!  opt B3LYP def2-TZVP CPCM D3 
%pal nprocs 102 end
%cpcm epsilon 78.4 end 
*xyz 0 1 
C   0.28170893 -0.74025096 -0.64714227
H   -0.1023115 -1.23978963 -1.54369343
N   0.34400138 -2.89633683 0.46394379
O   -0.01715164 -3.5008592 -0.58042473
O   0.54612735 -3.60364724 1.49196808
H   0.91007991 1.11241861 0.20838262
C   0.50148929 -1.57572752 0.50764979
H   3.39304712 -1.49020756 -0.29224466
H   0.82592201 -1.1197302 1.43767878
C   0.52588189 0.57630765 -0.64191468
H   0.37553797 1.21234406 -1.49622588
C   6.95294717 0.62175149 -0.10065524
C   7.95269072 1.55047399 -0.38254524
C   7.58944752 2.79988301 -0.92562216
C   6.23103817 3.08630952 -1.09592656
C   5.26772676 2.13044357 -0.79229735
N   5.64075935 0.91229379 -0.31905001
H   7.18734199 -0.38069738 0.30295333
H   5.91574337 4.06369925 -1.47914924
H   4.1881395 2.31989907 -0.9307685
C   9.36674969 1.19374642 -0.11876173
H   9.89486177 1.98011463 0.44862247
H   9.93237284 1.05570504 -1.0571672
H   9.48223343 0.26276033 0.45938668
C   8.62046661 3.77743288 -1.33488562
H   8.20608464 4.72386755 -1.71531666
H   9.26064611 3.36780816 -2.13971668
H   9.30546547 4.03921337 -0.5083843
H   4.91801488 0.1602825 -0.1466216
O   4.35471277 -1.42175865 -0.2875263
H   4.62421211 -1.7605568 -1.16149967
*
