!  NUMFREQ B3LYP def2-TZVP CPCM D3 
%pal nprocs 102 end
%cpcm epsilon 78.4 end 
*xyz 0 1 
C   -2.48633725892743 1.69002587080877 -0.67748787190856
H   -1.8631811918054 2.16582170639526 0.07116435482339
N   -3.41635756045292 0.31511940935326 1.1462010165812
O   -2.67712180194883 0.88007353755091 1.97029360595548
O   -4.3025993895755 -0.47674001411518 1.51003658604714
H   -3.11822618342506 1.72319491860408 -2.70075438232633
C   -3.19112600458668 0.47756255113667 -0.24888739612085
H   -4.09338374566056 0.21274767036736 -0.79071943859534
H   -2.36481154409477 -0.55132332741641 -0.51216583748822
C   -2.51742065678281 2.17768487665433 -1.92003299566028
H   -1.93550391321301 3.04908572887237 -2.19086711836768
C   1.75444032431995 -1.22231056703475 -0.31494477218582
C   2.99278833380258 -0.76519704024006 0.11218943677732
C   2.99713795700987 0.20061075134304 1.12167036258788
C   1.80417217699381 0.66407076899587 1.65697218616233
C   0.61079800648171 0.1569778082389 1.17213993180341
N   0.61076432612564 -0.76609713034861 0.20636887073661
H   1.65820684966975 -1.96792134182654 -1.09391185012982
H   1.79482359249293 1.41028471144231 2.43893050183925
H   -0.35739941272364 0.47410180744842 1.53675145085784
C   4.26236009221553 -1.27985000391445 -0.49780525057417
H   4.95558411030856 -1.61148684183314 0.27732679404781
H   4.76005497581243 -0.49021478974268 -1.06565844863677
H   4.06570221539156 -2.11400487289531 -1.17072760046366
H   3.94048261639154 0.58819146944582 1.48718737158324
H   -1.89643811549293 -2.2984757891844 -0.45700805164909
O   -1.54177109361524 -1.47788945158923 -0.82359670928496
H   -0.44563770471111 -1.16404241651672 -0.24266474641127
*
