!  opt B3LYP def2-TZVP CPCM D3 
%pal nprocs 102 end
%cpcm epsilon 78.4 end 
*xyz 0 2 
C   -0.35231209 1.0033107 1.0899291
C   1.02631213 0.79867971 1.06966052
C   1.55789936 -0.38708181 0.55311952
C   0.70921287 -1.37021865 0.04801245
C   -0.67137087 -1.14792865 0.07001007
C   -1.21445899 0.03383078 0.58994954
H   -0.75794022 1.93161118 1.50176907
H   1.69274996 1.57747056 1.46582836
H   1.11637014 -2.30418956 -0.36234992
H   -2.29932015 0.19516988 0.60209045
N   -1.55470357 -2.1621013 -0.44984139
O   -2.76306556 -1.96497189 -0.43627987
O   -1.07780083 -3.19888854 -0.8929193
C   3.04748084 -0.5941893 0.57975912
C   3.43765975 -1.87581895 1.30565005
H   4.52783908 -1.98270965 1.40705952
H   3.06302076 -2.78328933 0.80866072
H   3.02623094 -1.88043139 2.32847135
N   3.55718945 -0.66654824 -0.83271536
O   4.38699488 0.15625627 -1.18556111
O   3.13708535 -1.53352592 -1.57844362
H   3.56585875 0.29011002 1.07255151
C   5.92028879 4.68183803 5.93437053
N   7.19528123 4.95587037 5.53371896
C   7.64393972 4.53775969 4.19394021
C   6.67680025 3.52662976 3.54347083
N   5.27674202 3.99926877 3.60771079
C   4.86278968 4.16140874 5.02503061
H   5.66382022 4.84391038 6.96975892
H   7.92114013 4.92066182 6.24839939
H   8.66883965 4.10882997 4.24857937
H   7.71870909 5.45383012 3.56063091
H   6.95269826 3.35852041 2.47934894
H   6.74625015 2.54020756 4.05211885
H   5.18887074 4.89396989 3.11190086
H   3.95917032 4.81505991 5.06145954
H   4.52777816 3.15668906 5.38875132
H   3.4077311 1.29322885 3.37652179
H   4.20003934 2.5267999 2.92515852
O   3.59559918 1.82879083 2.60253887
*
