!  opt B3LYP def2-TZVP CPCM D3 
%pal nprocs 102 end
%cpcm epsilon 78.4 end 
*xyz -1 1 
C   0.88896399 3.27562149 1.95684653
C   1.38127259 1.97359172 1.87903971
C   0.50241992 0.89328412 1.7722359
C   -0.87694434 1.10897581 1.73760168
C   -1.33250299 2.4157431 1.81740849
C   -0.48502268 3.5097543 1.9274707
H   1.57890772 4.1192199 2.03998041
H   2.46430321 1.79968541 1.90239478
H   -1.56966546 0.2678311 1.64574444
Cl   -3.02909011 2.69004765 1.77700879
H   -0.87420179 4.52771779 1.98906783
C   1.06703892 -0.49940604 1.71138984
C   0.44624914 -1.42798674 2.74618955
H   0.92680897 -2.41733659 2.76317606
H   -0.62830048 -1.59213476 2.5845787
H   0.5467835 -1.00558991 3.75905726
N   0.81634451 -1.06874468 0.34376088
O   1.7729899 -1.47287178 -0.29871304
O   -0.32410303 -1.11560849 -0.08583272
H   2.19886469 -0.46790252 1.8622171
O   6.54596097 0.07100014 2.5736777
H   6.86811431 0.68490917 1.96909017
H   5.28182888 -0.05549475 2.22059855
H   4.1957937 -0.74635654 1.18318232
O   4.18898874 -0.15533578 1.9091176
*
