29
	Energy:    -216.3931100
C         -0.77463        1.15981       -0.03181
C          0.57960        1.17834        0.32139
C          1.31750       -0.01022        0.30630
C          0.69150       -1.20409       -0.04863
C         -0.67107       -1.20107       -0.38372
C         -1.42389       -0.02537       -0.38728
H          1.05198        2.13250        0.60762
H          1.24662       -2.15508       -0.06567
H         -2.49401       -0.02996       -0.65583
N         -1.31123       -2.45023       -0.73645
O         -2.49482       -2.44517       -1.04224
O         -0.64787       -3.47722       -0.71843
C          2.77024        0.04019        0.70776
H          2.84763        0.52252        1.73199
C          3.49427       -1.29826        0.74480
H          4.55145       -1.18730        1.04584
H          3.50459       -1.80825       -0.23040
H          3.04441       -1.99109        1.47332
N          3.54254        0.93088       -0.23578
O          4.73738        1.07220       -0.03253
O          2.95902        1.47957       -1.15142
O          2.58941        3.45965        7.41931
H          2.89024        2.66993        7.71263
N         -1.52429        2.39881       -0.02955
O         -2.70108        2.37641       -0.35677
O         -0.95515        3.42987        0.29670
H          2.39957        1.76825        4.27873
H          2.91304        2.35123        5.58678
O          3.20087        1.84688        4.80336
