!  NUMFREQ B3LYP def2-TZVP CPCM D3 
%pal nprocs 102 end
%cpcm epsilon 78.4 end 
*xyz 0 2 
C   -2.99398323708616 -0.56496462490373 -1.65869931189959
C   -1.66616565508063 -0.31494623984437 -1.32923667821096
C   -0.61954403918926 -0.6640675291847 -2.18957101146748
C   -0.93864010808234 -1.28246556963217 -3.39736673931413
C   -2.27012181492559 -1.51369540490355 -3.71353775161227
C   -3.31502254681577 -1.16530347819515 -2.86574446495802
H   -3.78271144296702 -0.28014422694596 -0.97521927455343
H   -1.43439413371248 0.16691113509228 -0.38900516557386
H   -0.17055854188952 -1.57671680726906 -4.09438195571495
H   -4.33811671860792 -1.35765838356019 -3.14887069802207
N   -2.58803287824516 -2.15174165667691 -4.99476866924057
O   -3.76723219469514 -2.33947848662069 -5.27229013026558
O   -1.66504462897951 -2.46924495582699 -5.73539086497872
C   0.78575693028226 -0.41983948861536 -1.73534864550896
C   1.30304453967018 -1.40356549280746 -0.70021344168555
H   0.51931748160155 -1.58410475384999 0.03411604380982
H   2.17300596299344 -1.00879045496759 -0.17754142519182
H   1.5750067345808 -2.36265083489237 -1.14991339743371
N   1.72107838518304 -0.15277962350052 -2.78374689334088
O   2.91573732671736 -0.44629175039092 -2.6142936055992
O   1.34775913719121 0.46863473697264 -3.79439818754282
H   0.78063697006843 0.76255535211731 -1.12903617747394
C   -0.2493925815467 0.32344731952243 3.93768065694397
C   1.08065825496333 0.30922275214896 4.60486067751943
C   1.96880845924108 1.46595288418963 4.12199564276637
C   1.9676305927266 1.56448136785632 2.60555512125453
N   0.57891213952643 1.72272625183395 2.08406414062575
C   -0.31649499915571 0.58915901408494 2.4792329071951
H   -1.11983241335466 -0.09380992938791 4.42501002747632
H   0.97043941057677 0.3391253953796 5.68991889320729
H   1.59462690718776 -0.63910001943488 4.37335410169395
H   2.99492652076077 1.32853433648502 4.46605482906433
H   1.60731107050585 2.40907006487937 4.54156566449972
H   2.54299167438994 2.418152696956 2.25142897653286
H   2.37054975057338 0.66009528723202 2.1466486811996
H   0.1873699977601 2.59413009202411 2.44191299771293
H   -1.32421572505505 0.83059228586933 2.14446798132921
H   0.0302417063138 -0.27270127451885 1.89460286466763
H   0.62010103992844 1.80457795388136 0.98630025442373
H   0.11040095603164 2.41928166968642 -0.88714052266869
O   0.81319171061443 1.88741038971768 -0.49305544966527
*
