27
Coordinates from ORCA-job neb_MEP E -648.335375137531
  C      -1.633941      1.178018     -0.635220
  H      -1.013855      0.945594     -1.500696
  N      -2.247225     -1.192734     -0.482394
  O      -1.432756     -2.003879     -0.896528
  O      -3.446464     -1.260790     -0.698926
  H      -2.140069      1.029984      2.118569
  C      -1.721230     -0.008072      0.316994
  H      -0.726517     -0.325051      0.615790
  H      -2.627636      1.478591     -0.968540
  C      -2.604801      0.243339      1.523462
  H      -3.598486      0.574131      1.224624
  C       1.938605      0.972178     -0.621915
  C       2.290866      0.505339     -1.880941
  C       2.560981     -0.848713     -2.036251
  C       2.470550     -1.681174     -0.927451
  C       2.111601     -1.125079      0.292769
  N       1.848835      0.176279      0.447633
  H       2.347183      1.189392     -2.716874
  H       2.835175     -1.248279     -3.004239
  H       2.670004     -2.741548     -1.003170
  H      -1.177709      2.010996     -0.100324
  H      -2.693377     -0.649251      2.143462
  H       2.023965     -1.742546      1.179481
  H       1.713356      2.020231     -0.462320
  H       0.171710      0.536842      3.144659
  H       1.216709      0.808329      2.036389
  O       0.864526      1.157874      2.891957
27
Coordinates from ORCA-job neb_MEP E -648.334275686541
  C      -2.021643      1.322091     -0.500138
  H      -1.337225      1.268852     -1.345925
  N      -2.129197     -1.125595     -0.407387
  O      -1.219390     -1.546407     -1.104147
  O      -3.243073     -1.622086     -0.369836
  H      -2.453017      1.038739      2.236859
  C      -1.847351      0.121040      0.423614
  H      -0.799405      0.010877      0.689731
  H      -3.047830      1.383900     -0.865320
  C      -2.729200      0.159823      1.653260
  H      -3.781776      0.238720      1.385202
  C       2.254093      0.893112     -0.688736
  C       2.765099      0.411558     -1.886144
  C       2.872027     -0.963257     -2.058186
  C       2.465202     -1.800662     -1.027226
  C       1.966196     -1.228695      0.135185
  N       1.861463      0.091963      0.306483
  H       3.070978      1.100694     -2.661582
  H       3.263888     -1.374315     -2.979770
  H       2.527242     -2.876457     -1.119802
  H      -1.800824      2.224434      0.069727
  H      -2.583332     -0.724250      2.273919
  H       1.632194     -1.848913      0.958887
  H       2.154825      1.958707     -0.516318
  H       0.197787      0.695970      3.002515
  H       1.169279      0.858359      1.806111
  O       0.792991      1.331796      2.589025
27
Coordinates from ORCA-job neb_MEP E -648.332843507352
  C      -2.413949      1.422322     -0.364494
  H      -1.701558      1.582678     -1.171145
  N      -1.975081     -1.008203     -0.320950
  O      -1.249001     -1.014530     -1.302170
  O      -2.675039     -1.951781      0.009482
  H      -2.789087      1.015021      2.334608
  C      -1.985597      0.261589      0.525262
  H      -0.936853      0.381112      0.791892
  H      -3.405157      1.248109     -0.786303
  C      -2.831751      0.084952      1.766944
  H      -3.872417     -0.120268      1.517022
  C       2.572310      0.799874     -0.712726
  C       3.225343      0.273470     -1.818397
  C       3.154820     -1.096323     -2.041191
  C       2.433864     -1.884113     -1.152244
  C       1.810877     -1.269140     -0.074487
  N       1.878604      0.046300      0.145374
  H       3.774471      0.924827     -2.484574
  H       3.651897     -1.541777     -2.893370
  H       2.351475     -2.953674     -1.289684
  H      -2.452925      2.322261      0.248969
  H      -2.454238     -0.718742      2.397718
  H       1.233480     -1.847785      0.637170
  H       2.603618      1.862918     -0.501954
  H       0.266053      0.821869      2.813122
  H       1.106137      0.903640      1.510418
  O       0.679705      1.455393      2.215707
27
Coordinates from ORCA-job neb_MEP E -648.328451478739
  C      -2.752288      1.493446     -0.207472
  H      -2.022367      1.897119     -0.907339
  N      -1.788424     -0.810985     -0.188491
  O      -1.503834     -0.634217     -1.372842
  O      -1.729276     -1.903768      0.352904
  H      -3.190124      0.909863      2.418648
  C      -2.139568      0.398633      0.647499
  H      -1.146269      0.735252      0.964243
  H      -3.622095      1.145777     -0.764804
  C      -2.929642     -0.002154      1.879949
  H      -3.848866     -0.531830      1.629565
  C       2.829761      0.692078     -0.697426
  C       3.621298      0.099822     -1.668567
  C       3.404978     -1.239028     -1.971747
  C       2.409612     -1.936328     -1.296048
  C       1.666284     -1.263451     -0.339479
  N       1.874836      0.020604     -0.050774
  H       4.384682      0.677663     -2.171107
  H       4.002445     -1.732616     -2.725885
  H       2.208308     -2.977595     -1.503210
  H      -3.063864      2.300032      0.456351
  H      -2.332930     -0.625437      2.543692
  H       0.876626     -1.758240      0.214406
  H       2.954090      1.733472     -0.421622
  H       0.345167      0.979619      2.473554
  H       1.001886      0.856703      1.046959
  O       0.489574      1.475565      1.659043
27
Coordinates from ORCA-job neb_MEP E -648.304841939972
  C      -2.730500      1.504650     -0.189347
  H      -1.987327      1.930006     -0.863474
  N      -1.763844     -0.771188     -0.155457
  O      -1.488415     -0.602829     -1.345172
  O      -1.637071     -1.865409      0.397758
  H      -3.189032      0.910770      2.420852
  C      -2.131688      0.392538      0.655985
  H      -1.064621      0.760619      1.010708
  H      -3.586103      1.181537     -0.786621
  C      -2.910116     -0.004559      1.898945
  H      -3.821313     -0.566184      1.680250
  C       2.818726      0.721409     -0.673683
  C       3.618650      0.116113     -1.622830
  C       3.395838     -1.221380     -1.927223
  C       2.386460     -1.917835     -1.268480
  C       1.626063     -1.246926     -0.331885
  N       1.848612      0.039114     -0.058116
  H       4.393501      0.684970     -2.115240
  H       4.001584     -1.717842     -2.672413
  H       2.187208     -2.956182     -1.483062
  H      -3.063065      2.293750      0.484678
  H      -2.294800     -0.599956      2.572623
  H       0.813356     -1.720667      0.206223
  H       2.928408      1.760556     -0.391239
  H       0.271589      1.001140      2.365682
  H       1.084101      0.633946      0.754184
  O       0.293797      1.259838      1.436352
27
Coordinates from ORCA-job neb_MEP E -648.295257422032
  C      -2.727777      1.503388     -0.189186
  H      -1.985026      1.929659     -0.862955
  N      -1.772195     -0.749125     -0.141204
  O      -1.481760     -0.596014     -1.347965
  O      -1.630143     -1.866916      0.406925
  H      -3.186085      0.911993      2.418065
  C      -2.161772      0.362923      0.631794
  H      -0.936983      0.800334      1.058213
  H      -3.585848      1.188572     -0.792649
  C      -2.907267     -0.004844      1.897962
  H      -3.822450     -0.569286      1.688922
  C       2.815760      0.728829     -0.670814
  C       3.615418      0.119814     -1.618310
  C       3.393174     -1.219252     -1.922503
  C       2.384248     -1.914117     -1.264577
  C       1.618360     -1.248040     -0.327687
  N       1.845415      0.042003     -0.056573
  H       4.391936      0.687331     -2.111886
  H       3.998477     -1.715695     -2.669298
  H       2.184899     -2.954616     -1.478804
  H      -3.060037      2.291331      0.487166
  H      -2.292960     -0.600137      2.572437
  H       0.804971     -1.716928      0.209430
  H       2.924795      1.766681     -0.388245
  H       0.242874      1.007731      2.371760
  H       1.153628      0.568424      0.663073
  O       0.176348      1.245958      1.436908
27
Coordinates from ORCA-job neb_MEP E -648.307477462911
  C      -2.765473      1.494531     -0.211880
  H      -1.959198      1.899381     -0.825294
  N      -1.792024     -0.731295     -0.130218
  O      -1.445475     -0.583374     -1.361491
  O      -1.569488     -1.871073      0.433382
  H      -3.211450      0.904129      2.396808
  C      -2.348450      0.272896      0.551126
  H      -0.739485      0.916456      1.186228
  H      -3.600731      1.272253     -0.887957
  C      -2.941532     -0.026252      1.895659
  H      -3.852224     -0.631106      1.799468
  C       2.837348      0.726883     -0.682302
  C       3.628898      0.109864     -1.628835
  C       3.395642     -1.228461     -1.929392
  C       2.380526     -1.917860     -1.276674
  C       1.610652     -1.251438     -0.342871
  N       1.862525      0.036258     -0.075263
  H       4.407795      0.671748     -2.122397
  H       3.999993     -1.729370     -2.675041
  H       2.176651     -2.956077     -1.492399
  H      -3.093258      2.269423      0.481896
  H      -2.257197     -0.579618      2.539400
  H       0.778319     -1.700423      0.183272
  H       2.947123      1.760832     -0.391961
  H       0.190849      1.040018      2.440650
  H       1.237850      0.533921      0.613675
  O       0.121815      1.297753      1.512410
27
Coordinates from ORCA-job neb_MEP E -648.309872827945
  C      -3.148183      1.467802     -0.087866
  H      -2.376229      2.112197     -0.516374
  N      -1.808805     -0.552507     -0.084123
  O      -1.481407     -0.291115     -1.310327
  O      -1.357146     -1.650906      0.448642
  H      -3.521363      0.698592      2.471734
  C      -2.566274      0.279215      0.613505
  H      -0.730863      1.184933      1.158730
  H      -3.798840      1.170910     -0.918460
  C      -2.978812     -0.119491      1.997918
  H      -3.629124     -1.002589      1.995252
  C       3.057569      0.604170     -0.659968
  C       3.933365     -0.098231     -1.459259
  C       3.595497     -1.390738     -1.851035
  C       2.390853     -1.946796     -1.436113
  C       1.543531     -1.203761     -0.637347
  N       1.903139      0.037817     -0.277374
  H       4.861126      0.361336     -1.765971
  H       4.269351     -1.959267     -2.478244
  H       2.106070     -2.948171     -1.725989
  H      -3.735613      2.060669      0.612590
  H      -2.119596     -0.370357      2.625081
  H       0.572646     -1.540675     -0.282341
  H       3.240176      1.610697     -0.312715
  H       0.345176      1.389784      2.248240
  H       1.253981      0.584318      0.328208
  O       0.179775      1.512165      1.303606
