27
Coordinates from ORCA-job neb_MEP E -872.243435402287
  C      -2.256462      0.351953     -0.155207
  C      -0.935252      0.275340      0.258275
  C       0.044775     -0.235897     -0.591487
  C      -0.309377     -0.671445     -1.870534
  C      -1.622206     -0.595445     -2.302324
  C      -2.579629     -0.085017     -1.432696
  H      -3.022668      0.745899      0.494867
  H      -0.650080      0.614980      1.245899
  H       0.444937     -1.068561     -2.537570
  C       1.466484     -0.347840     -0.098157
  H       1.527067      0.103598      0.918170
  C       1.999370     -1.766899     -0.071116
  H       3.001971     -1.796180      0.351424
  H       2.017623     -2.218764     -1.063117
  H       1.340268     -2.358210      0.565642
  N       2.352373      0.566418     -0.924679
  O       3.439549      0.161423     -1.304313
  O       1.945638      1.703921     -1.123441
  O       1.326229      2.638937      4.344248
  H       1.709042      2.328279      5.171613
  H      -1.904789     -0.925551     -3.290176
  N      -3.971864     -0.005188     -1.879353
  O      -4.241435     -0.389531     -3.010980
  O      -4.806910      0.441689     -1.102095
  H       0.826905      0.024027      2.997524
  H       1.381873      1.829823      3.693945
  O       1.476568      0.678242      2.715638
27
Coordinates from ORCA-job neb_MEP E -872.242847305149
  C      -2.142115      0.609686     -0.175576
  C      -0.809954      0.516417      0.193034
  C       0.098457     -0.197942     -0.590473
  C      -0.340966     -0.805509     -1.768442
  C      -1.670327     -0.725194     -2.151504
  C      -2.555017     -0.022806     -1.340058
  H      -2.852184      1.153229      0.430126
  H      -0.463280      0.980358      1.107073
  H       0.351417     -1.357268     -2.390625
  C       1.522901     -0.343085     -0.110749
  H       1.567260     -0.003297      0.954490
  C       2.092269     -1.745164     -0.207281
  H       3.067426     -1.793918      0.273245
  H       2.191038     -2.089197     -1.236686
  H       1.416188     -2.418312      0.321324
  N       2.411004      0.663523     -0.814265
  O       3.542566      0.330780     -1.132195
  O       1.971357      1.795467     -0.969704
  O       1.023366      2.516602      3.973962
  H       1.177572      2.343398      4.910610
  H      -2.021262     -1.204140     -3.052253
  N      -3.967668      0.036191     -1.718182
  O      -4.321851     -0.532210     -2.744550
  O      -4.739561      0.649450     -0.986994
  H       0.757893     -0.283176      2.957641
  H       1.202548      1.610598      3.494992
  O       1.490923      0.315522      2.773039
27
Coordinates from ORCA-job neb_MEP E -872.241970744172
  C      -2.081569      0.737722     -0.203889
  C      -0.743439      0.642214      0.139326
  C       0.127002     -0.172529     -0.589553
  C      -0.363269     -0.875208     -1.691783
  C      -1.701260     -0.794690     -2.050459
  C      -2.544912      0.007018     -1.288188
  H      -2.760741      1.356475      0.364359
  H      -0.367826      1.181837      0.996442
  H       0.297128     -1.504110     -2.274185
  C       1.550988     -0.334080     -0.105590
  H       1.571698     -0.056808      1.010986
  C       2.139827     -1.724050     -0.275927
  H       3.096165     -1.787312      0.239235
  H       2.287996     -2.015333     -1.318821
  H       1.458421     -2.435763      0.191095
  N       2.437936      0.709702     -0.727764
  O       3.600126      0.420011     -0.982326
  O       1.983587      1.839273     -0.870520
  O       0.930038      2.433438      3.792198
  H       0.846446      2.270153      4.737213
  H      -2.084730     -1.346086     -2.894100
  N      -3.965752      0.056725     -1.626223
  O      -4.365405     -0.603960     -2.577195
  O      -4.702968      0.755619     -0.933624
  H       0.741290     -0.436460      2.863051
  H       1.133090      1.514411      3.375183
  O       1.480134      0.161793      2.701061
27
Coordinates from ORCA-job neb_MEP E -872.239083317310
  C      -2.088003      0.745959     -0.202608
  C      -0.751365      0.656531      0.143955
  C       0.124553     -0.166859     -0.571564
  C      -0.366202     -0.877786     -1.670398
  C      -1.700289     -0.797177     -2.036716
  C      -2.549508      0.006384     -1.283979
  H      -2.770191      1.364757      0.361269
  H      -0.380270      1.208869      0.995099
  H       0.297785     -1.505562     -2.248743
  C       1.550476     -0.330390     -0.118879
  H       1.554403     -0.060475      1.120422
  C       2.136707     -1.721581     -0.262712
  H       3.089759     -1.788575      0.259853
  H       2.298476     -2.013204     -1.303097
  H       1.448555     -2.434346      0.193892
  N       2.413225      0.696437     -0.670161
  O       3.604588      0.433924     -0.877202
  O       1.960124      1.837017     -0.841550
  O       0.934700      2.430131      3.781176
  H       0.863923      2.211947      4.716252
  H      -2.077632     -1.347815     -2.883120
  N      -3.967408      0.056291     -1.626564
  O      -4.364665     -0.605397     -2.579897
  O      -4.707658      0.754611     -0.938941
  H       0.807695     -0.471885      2.744266
  H       1.141661      1.566155      3.315059
  O       1.496562      0.152039      2.484889
27
Coordinates from ORCA-job neb_MEP E -872.245889650294
  C      -2.085743      0.745869     -0.202396
  C      -0.751118      0.657753      0.142321
  C       0.128417     -0.164812     -0.573401
  C      -0.370162     -0.880836     -1.669858
  C      -1.700360     -0.798076     -2.035266
  C      -2.551563      0.006322     -1.284763
  H      -2.769612      1.363816      0.361667
  H      -0.381110      1.211488      0.993986
  H       0.296932     -1.504830     -2.250134
  C       1.560428     -0.328503     -0.190560
  H       1.542645     -0.042069      1.282649
  C       2.137733     -1.720407     -0.265450
  H       3.091752     -1.787640      0.258189
  H       2.302795     -2.018689     -1.303426
  H       1.447550     -2.431261      0.192776
  N       2.397946      0.679233     -0.665282
  O       3.611571      0.430187     -0.875714
  O       1.956173      1.844273     -0.841782
  O       0.934385      2.427323      3.781115
  H       0.862700      2.213780      4.717635
  H      -2.077738     -1.347431     -2.883240
  N      -3.964323      0.055700     -1.626561
  O      -4.366566     -0.605842     -2.580683
  O      -4.708938      0.755988     -0.937664
  H       0.814117     -0.469055      2.731706
  H       1.141288      1.577276      3.319035
  O       1.500802      0.130444      2.405101
27
Coordinates from ORCA-job neb_MEP E -872.265913774560
  C      -1.953513      0.922170     -0.265135
  C      -0.593857      0.859135     -0.037606
  C       0.207067     -0.115132     -0.671621
  C      -0.430850     -1.012756     -1.552365
  C      -1.777734     -0.928819     -1.824844
  C      -2.541745      0.034446     -1.168823
  H      -2.568465      1.641554      0.254477
  H      -0.145663      1.540940      0.668724
  H       0.164149     -1.750430     -2.071084
  C       1.634306     -0.286844     -0.462770
  H       1.491234     -0.196094      1.589313
  C       2.242091     -1.658790     -0.489240
  H       3.138594     -1.689969      0.128754
  H       2.531663     -1.980177     -1.495722
  H       1.530102     -2.384822     -0.094614
  N       2.473032      0.773994     -0.566025
  O       3.727742      0.570509     -0.649060
  O       2.035597      1.968588     -0.615174
  O       0.952998      2.224068      3.808223
  H       0.002782      2.354668      3.904102
  H      -2.235578     -1.585096     -2.548121
  N      -3.957647      0.105095     -1.427526
  O      -4.449783     -0.679437     -2.242302
  O      -4.630991      0.943660     -0.825435
  H       0.684573     -0.817667      2.745540
  H       1.048319      1.367740      3.343118
  O       1.421576     -0.220534      2.565218
27
Coordinates from ORCA-job neb_MEP E -872.270985197313
  C      -1.839259      1.098059     -0.335631
  C      -0.472625      1.037007     -0.178947
  C       0.282362     -0.053311     -0.685232
  C      -0.440164     -1.067856     -1.365840
  C      -1.799679     -0.995405     -1.555914
  C      -2.508569      0.088883     -1.034241
  H      -2.401437      1.917671      0.086498
  H       0.030458      1.816128      0.367808
  H       0.093820     -1.905135     -1.789410
  C       1.703391     -0.224853     -0.532634
  H       1.440008     -0.382793      1.637018
  C       2.338677     -1.581784     -0.633499
  H       3.210117     -1.635678      0.017000
  H       2.677595     -1.822526     -1.646959
  H       1.633200     -2.351390     -0.322281
  N       2.556251      0.840062     -0.463568
  O       3.808890      0.629045     -0.497495
  O       2.135721      2.035381     -0.396428
  O       0.468181      1.993935      3.611786
  H      -0.302557      2.252743      3.093525
  H      -2.317031     -1.759790     -2.115097
  N      -3.928104      0.161247     -1.214565
  O      -4.498604     -0.744707     -1.833211
  O      -4.542250      1.125721     -0.745259
  H       0.609217     -1.122678      2.693939
  H       0.741116      1.131055      3.239054
  O       1.321274     -0.479029      2.599586
27
Coordinates from ORCA-job neb_MEP E -872.272149312634
  C      -1.750556      1.235798     -0.401605
  C      -0.379922      1.169863     -0.300762
  C       0.346458      0.003338     -0.673330
  C      -0.430541     -1.078319     -1.179882
  C      -1.798359     -1.011914     -1.294910
  C      -2.470948      0.147260     -0.899821
  H      -2.274422      2.127617     -0.091541
  H       0.158014      2.015120      0.088274
  H       0.055502     -1.981533     -1.512882
  C       1.764144     -0.169675     -0.548640
  H       1.375225     -0.525472      1.649438
  C       2.419301     -1.509705     -0.730637
  H       3.272290     -1.604742     -0.060991
  H       2.802857     -1.667239     -1.744952
  H       1.728575     -2.320281     -0.506706
  N       2.628710      0.883498     -0.369044
  O       3.876793      0.656907     -0.367705
  O       2.227536      2.076974     -0.219871
  O       0.031284      1.808547      3.242923
  H      -0.533388      2.004541      2.486704
  H      -2.352249     -1.847122     -1.696576
  N      -3.896587      0.217837     -1.009299
  O      -4.513922     -0.765431     -1.435089
  O      -4.470381      1.259799     -0.670243
  H       0.542500     -1.381184      2.612762
  H       0.430207      0.939481      3.039969
  O       1.211878     -0.683964      2.594418
