!  NUMFREQ B3LYP def2-TZVP CPCM D3 
%pal nprocs 102 end
%cpcm epsilon 78.4 end 
*xyz -1 1 
C   1.74664914469551 -1.12524209977148 0.32825129711141
H   2.79429013105963 -0.85377606214543 0.41680195026647 M = 2
N   1.41147988328853 -1.75775954384642 1.67184082697622
O   2.29900489493833 -1.8366859556259 2.50693774520304
O   0.26895624092889 -2.15393671078406 1.85081393912612
C   5.40798291764289 -1.58764285068961 0.68835110790065
O   5.75488551216517 -1.07942624194086 1.77866167524219
O   5.06377992060176 -0.94112109531909 -0.34955716864093
C   5.35270292810827 -3.10964158936012 0.58353343415048
H   5.59657531735638 -3.44483641031663 -0.42478437665279
H   4.33206296366951 -3.43748770620464 0.80187139388745
H   6.02075554057954 -3.58251108034458 1.30301660250692
C   0.87684650199348 0.107924764134 0.14607774441802
H   1.02233424978638 0.81277857149141 0.96570863389453
H   -0.17597090306966 -0.16263338395041 0.08278453434777
H   1.16644241360949 0.59786964685848 -0.78376186280012
C   1.5648228573427 -2.17334385434069 -0.75747105662007
H   0.52100959789985 -2.47194440572284 -0.8463349278369
H   2.17769411577567 -3.05225479319801 -0.55930667590586
H   1.88642302826028 -1.7369401771216 -1.70364620958815
H   4.72897011923484 0.68954299558818 -0.10935654382971
O   4.50566624103455 1.65880211709932 -0.0459318534273
H   4.51823638309771 1.85480586551107 0.89861979027051
*
