!  opt B3LYP def2-TZVP CPCM D3 
%pal nprocs 102 end
%cpcm epsilon 78.4 end 
*xyz 0 1 
C   2.41809685 2.57126831 1.21294886
C   2.5818455 1.19422192 1.34628708
C   1.46225616 0.36298397 1.39541756
C   0.18116643 0.91264044 1.31848202
C   0.02187948 2.29014085 1.19028787
C   1.14032131 3.12039951 1.12816894
H   3.29628062 3.21654543 1.17197777
H   3.58735144 0.77176881 1.40946917
H   -0.69928736 0.2692524 1.3547474
H   1.01584629 4.19777959 1.00743255
C   1.65829575 -1.12408399 1.52972557
C   0.93226155 -1.69835398 2.73821346
H   1.14933736 -2.76676065 2.88989984
H   -0.16083075 -1.60625582 2.66998721
H   1.23480847 -1.16996201 3.65611687
N   1.20452613 -1.79085772 0.26569533
O   1.44096271 -1.2423177 -0.79944935
O   0.63333239 -2.86693549 0.32309582
N   4.95721403 -2.11240357 3.84407393
C   4.12842067 -3.14231616 4.51219274
C   4.31516275 -3.02987022 6.0421914
N   5.7466483 -3.20409055 6.39700681
C   6.57547102 -2.1836689 5.70638659
C   6.38710166 -2.30629701 4.17769318
H   6.97502585 -1.51593504 3.66269567
H   6.78084476 -3.2846902 3.82915466
H   7.64016288 -2.36157965 5.97086638
H   6.32632505 -1.15054229 6.03146284
H   3.73413218 -3.82608845 6.55509853
H   3.91492419 -2.05303796 6.39022716
H   4.36714125 -4.17193054 4.1711587
H   2.76941823 -1.36706637 1.61048525
H   4.81643946 -2.13844073 2.82712161
H   3.06360674 -2.950559 4.25445161
H   5.85986823 -3.10515174 7.41413839
H   4.86406927 -2.43439699 0.14038769
H   5.37333335 -1.10603619 0.68582027
O   4.69075947 -1.77542382 0.82200487
H   -0.98082456 2.71670258 1.13936485
*
