27
Coordinates from ORCA-job neb E -648.295297709883
  C      -2.727777      1.503388     -0.189186
  H      -1.985026      1.929659     -0.862955
  N      -1.772195     -0.749125     -0.141204
  O      -1.481760     -0.596014     -1.347965
  O      -1.630143     -1.866916      0.406925
  H      -3.186085      0.911993      2.418065
  C      -2.161772      0.362923      0.631794
  H      -0.936983      0.800334      1.058213
  H      -3.585848      1.188572     -0.792649
  C      -2.907267     -0.004844      1.897962
  H      -3.822450     -0.569286      1.688922
  C       2.815760      0.728829     -0.670814
  C       3.615418      0.119814     -1.618310
  C       3.393174     -1.219252     -1.922503
  C       2.384248     -1.914117     -1.264577
  C       1.618360     -1.248040     -0.327687
  N       1.845415      0.042003     -0.056573
  H       4.391936      0.687331     -2.111886
  H       3.998477     -1.715695     -2.669298
  H       2.184899     -2.954616     -1.478804
  H      -3.060037      2.291331      0.487166
  H      -2.292960     -0.600137      2.572437
  H       0.804971     -1.716928      0.209430
  H       2.924795      1.766681     -0.388245
  H       0.242874      1.007731      2.371760
  H       1.153628      0.568424      0.663073
  O       0.176348      1.245958      1.436908
27
Coordinates from ORCA-job neb E -648.295452022402
  C      -2.742922      1.489278     -0.192812
  H      -2.004999      1.889036     -0.887702
  N      -1.800654     -0.767507     -0.109520
  O      -1.513115     -0.638619     -1.320994
  O      -1.652218     -1.874931      0.459963
  H      -3.178581      0.947786      2.431981
  C      -2.181763      0.357672      0.642815
  H      -0.940571      0.797563      1.057597
  H      -3.615661      1.175234     -0.775830
  C      -2.918263      0.019693      1.922172
  H      -3.844094     -0.534079      1.730901
  C       2.834467      0.726795     -0.663355
  C       3.655575      0.121954     -1.594923
  C       3.430284     -1.211405     -1.921472
  C       2.393632     -1.903695     -1.305616
  C       1.606781     -1.242776     -0.382159
  N       1.841674      0.040767     -0.084448
  H       4.453375      0.686810     -2.055255
  H       4.056115     -1.705814     -2.652673
  H       2.191786     -2.939303     -1.538325
  H      -3.052306      2.296526      0.471590
  H      -2.306165     -0.575726      2.598507
  H       0.774549     -1.710108      0.125680
  H       2.946742      1.758525     -0.361146
  H       0.248982      0.998410      2.353068
  H       1.148174      0.560369      0.631449
  O       0.169178      1.237546      1.420507
27
Coordinates from ORCA-job neb E -648.295544930401
  C      -2.761581      1.488771     -0.184360
  H      -2.037311      1.882464     -0.896982
  N      -1.808982     -0.766090     -0.108259
  O      -1.544182     -0.638869     -1.323260
  O      -1.654327     -1.870872      0.460534
  H      -3.164075      0.949447      2.448987
  C      -2.182354      0.364057      0.650031
  H      -0.956717      0.797124      1.043107
  H      -3.646856      1.171237     -0.746602
  C      -2.912662      0.022161      1.933253
  H      -3.843033     -0.525914      1.746596
  C       2.842837      0.723466     -0.662701
  C       3.678420      0.115855     -1.579435
  C       3.453689     -1.216472     -1.910248
  C       2.401914     -1.904172     -1.315074
  C       1.601287     -1.240121     -0.405859
  N       1.836755      0.041884     -0.101950
  H       4.487360      0.677350     -2.023965
  H       4.092280     -1.714018     -2.628062
  H       2.200059     -2.938728     -1.551840
  H      -3.056125      2.301222      0.480411
  H      -2.297907     -0.579057      2.602149
  H       0.758916     -1.704941      0.087584
  H       2.954427      1.754416     -0.357220
  H       0.253012      1.002967      2.330874
  H       1.134670      0.566354      0.613744
  O       0.170486      1.240479      1.398548
27
Coordinates from ORCA-job neb E -648.295632429257
  C      -2.794404      1.484167     -0.174718
  H      -2.088482      1.862610     -0.913241
  N      -1.828585     -0.765184     -0.100967
  O      -1.580884     -0.642936     -1.320730
  O      -1.646905     -1.863853      0.473114
  H      -3.145009      0.956653      2.471972
  C      -2.200296      0.364918      0.655347
  H      -0.963180      0.804331      1.031576
  H      -3.698775      1.167613     -0.706376
  C      -2.910305      0.028008      1.950725
  H      -3.848665     -0.511416      1.779462
  C       2.860176      0.718065     -0.659253
  C       3.716516      0.106012     -1.553655
  C       3.489389     -1.223174     -1.895224
  C       2.413188     -1.902467     -1.335334
  C       1.592021     -1.234566     -0.447273
  N       1.831801      0.043940     -0.130609
  H       4.543646      0.661341     -1.971623
  H       4.145955     -1.725189     -2.593526
  H       2.208858     -2.934267     -1.581938
  H      -3.062551      2.306857      0.488722
  H      -2.289521     -0.579974      2.607509
  H       0.732027     -1.693407      0.020724
  H       2.972330      1.746443     -0.345562
  H       0.260322      1.010649      2.302750
  H       1.126510      0.568547      0.577077
  O       0.164822      1.246277      1.371051
27
Coordinates from ORCA-job neb E -648.295696939701
  C      -2.827114      1.483418     -0.161957
  H      -2.142821      1.852620     -0.924819
  N      -1.836921     -0.757162     -0.103189
  O      -1.614558     -0.634864     -1.327890
  O      -1.633462     -1.853535      0.468464
  H      -3.123965      0.951970      2.493701
  C      -2.212007      0.368590      0.657909
  H      -0.970619      0.814871      1.018043
  H      -3.749278      1.167016     -0.662477
  C      -2.902291      0.025926      1.962153
  H      -3.846401     -0.507042      1.802168
  C       2.873738      0.712688     -0.657778
  C       3.746863      0.093745     -1.531040
  C       3.517625     -1.233728     -1.877686
  C       2.422522     -1.904158     -1.344525
  C       1.585302     -1.229998     -0.476287
  N       1.827247      0.047003     -0.154548
  H       4.588163      0.642520     -1.928882
  H       4.187585     -1.741545     -2.558875
  H       2.215941     -2.934287     -1.596314
  H      -3.071152      2.312258      0.503291
  H      -2.274108     -0.590134      2.603855
  H       0.710944     -1.682010     -0.028458
  H       2.985796      1.740264     -0.341428
  H       0.265199      1.023312      2.276178
  H       1.117902      0.574902      0.545306
  O       0.159872      1.257360      1.345085
27
Coordinates from ORCA-job neb E -648.295711055244
  C      -2.874636      1.489651     -0.137553
  H      -2.224523      1.854996     -0.931247
  N      -1.848582     -0.736165     -0.124308
  O      -1.641251     -0.595963     -1.350089
  O      -1.595137     -1.829249      0.435219
  H      -3.089379      0.926599      2.523727
  C      -2.227301      0.374445      0.654901
  H      -0.977884      0.833209      0.996348
  H      -3.820158      1.175852     -0.594633
  C      -2.885255      0.009955      1.969206
  H      -3.836124     -0.514882      1.822187
  C       2.885857      0.705179     -0.660436
  C       3.776681      0.074007     -1.506603
  C       3.547287     -1.254475     -1.849156
  C       2.434515     -1.913661     -1.339139
  C       1.580060     -1.228052     -0.496992
  N       1.821951      0.050305     -0.179934
  H       4.631346      0.614341     -1.887099
  H       4.230917     -1.771936     -2.509172
  H       2.227478     -2.944284     -1.588611
  H      -3.085540      2.320231      0.537006
  H      -2.244497     -0.621429      2.582545
  H       0.691966     -1.670937     -0.067215
  H       2.996081      1.734463     -0.349103
  H       0.267122      1.053960      2.238435
  H       1.108389      0.585257      0.505394
  O       0.150616      1.278583      1.306322
27
Coordinates from ORCA-job neb E -648.295692621391
  C      -2.939594      1.489681     -0.104683
  H      -2.343079      1.843680     -0.943716
  N      -1.861738     -0.715989     -0.146689
  O      -1.716584     -0.569871     -1.379537
  O      -1.590943     -1.814278      0.393419
  H      -3.034691      0.899521      2.563340
  C      -2.241629      0.382433      0.654869
  H      -0.996554      0.856200      0.960467
  H      -3.915395      1.174822     -0.492613
  C      -2.857070     -0.006747      1.982961
  H      -3.817390     -0.519981      1.857762
  C       2.914784      0.694386     -0.654609
  C       3.828946      0.045831     -1.461978
  C       3.591906     -1.279922     -1.809549
  C       2.448743     -1.918968     -1.342963
  C       1.572555     -1.217039     -0.537189
  N       1.821288      0.059069     -0.215928
  H       4.706925      0.570938     -1.809346
  H       4.292726     -1.810803     -2.440230
  H       2.234805     -2.946814     -1.598137
  H      -3.102490      2.328034      0.573879
  H      -2.200230     -0.655639      2.559168
  H       0.659896     -1.643516     -0.142871
  H       3.028637      1.723166     -0.342737
  H       0.274535      1.109375      2.180402
  H       1.096816      0.608150      0.451087
  O       0.144824      1.314280      1.245422
27
Coordinates from ORCA-job neb E -648.295725496623
  C      -2.896215      1.487972     -0.128085
  H      -2.263159      1.847775     -0.937636
  N      -1.851375     -0.732405     -0.126622
  O      -1.678289     -0.598128     -1.357386
  O      -1.609404     -1.830066      0.427755
  H      -3.074254      0.923808      2.536395
  C      -2.230637      0.378318      0.657435
  H      -0.987060      0.839551      0.984539
  H      -3.852091      1.172380     -0.562019
  C      -2.877937      0.008840      1.976182
  H      -3.831958     -0.512161      1.836094
  C       2.898870      0.701537     -0.657092
  C       3.798686      0.065509     -1.490131
  C       3.565951     -1.261029     -1.837748
  C       2.441305     -1.913477     -1.345382
  C       1.578805     -1.223401     -0.515062
  N       1.823327      0.053374     -0.193654
  H       4.662492      0.600736     -1.857020
  H       4.255838     -1.782125     -2.488327
  H       2.231107     -2.942292     -1.599682
  H      -3.091936      2.322748      0.546029
  H      -2.232704     -0.626626      2.580176
  H       0.680668     -1.660672     -0.100105
  H       3.010774      1.729958     -0.343346
  H       0.272669      1.067407      2.219866
  H       1.104294      0.593542      0.487357
  O       0.152230      1.288927      1.287468
27
Coordinates from ORCA-job neb E -648.295745781439
  C      -2.887181      1.487258     -0.133217
  H      -2.247002      1.845746     -0.937818
  N      -1.853324     -0.735997     -0.120934
  O      -1.653398     -0.600247     -1.348264
  O      -1.601616     -1.829280      0.439760
  H      -3.081338      0.931421      2.530340
  C      -2.231745      0.375801      0.657139
  H      -0.980669      0.837134      0.991027
  H      -3.840125      1.173404     -0.574956
  C      -2.883277      0.013702      1.975239
  H      -3.837163     -0.507214      1.833417
  C       2.892946      0.702404     -0.656729
  C       3.790683      0.070356     -1.494819
  C       3.560182     -1.256264     -1.843751
  C       2.439776     -1.912989     -1.347412
  C       1.578498     -1.226880     -0.512641
  N       1.821173      0.050089     -0.190232
  H       4.651243      0.608723     -1.864658
  H       4.248499     -1.774053     -2.498600
  H       2.231809     -2.942142     -1.602091
  H      -3.086893      2.322494      0.539105
  H      -2.241262     -0.619616      2.584988
  H       0.683503     -1.667266     -0.094418
  H       3.003110      1.730553     -0.341650
  H       0.269599      1.055959      2.226287
  H       1.105192      0.585972      0.490067
  O       0.148780      1.280933      1.294821
27
Coordinates from ORCA-job neb E -648.295754253096
  C      -2.885102      1.488704     -0.133190
  H      -2.243285      1.849531     -0.935440
  N      -1.851985     -0.735377     -0.122443
  O      -1.655603     -0.599515     -1.349982
  O      -1.609784     -1.831534      0.436079
  H      -3.084398      0.930393      2.528725
  C      -2.229708      0.376842      0.657221
  H      -0.981703      0.836218      0.991716
  H      -3.836486      1.174329     -0.577803
  C      -2.884230      0.013092      1.973678
  H      -3.837272     -0.508638      1.829540
  C       2.892053      0.703059     -0.658348
  C       3.788171      0.071564     -1.498635
  C       3.558823     -1.255845     -1.845299
  C       2.441213     -1.913918     -1.344404
  C       1.581584     -1.228209     -0.507609
  N       1.822969      0.049504     -0.187486
  H       4.646671      0.610918     -1.871843
  H       4.245785     -1.773188     -2.501924
  H       2.234263     -2.943786     -1.597034
  H      -3.087725      2.322526      0.540023
  H      -2.242795     -0.619703      2.584591
  H       0.688733     -1.669675     -0.085923
  H       3.001644      1.731753     -0.344802
  H       0.270540      1.054364      2.229020
  H       1.106240      0.586243      0.493999
  O       0.151386      1.280348      1.297572
27
Coordinates from ORCA-job neb E -648.295755348024
  C      -2.881544      1.489963     -0.133909
  H      -2.237471      1.852702     -0.933500
  N      -1.849824     -0.734597     -0.123138
  O      -1.649480     -0.597411     -1.349906
  O      -1.611919     -1.832114      0.434575
  H      -3.087771      0.929814      2.526209
  C      -2.228005      0.377158      0.656814
  H      -0.980324      0.835861      0.993712
  H      -3.831245      1.175463     -0.581991
  C      -2.885312      0.012700      1.971681
  H      -3.837504     -0.509858      1.825038
  C       2.889025      0.703862     -0.659939
  C       3.783550      0.073268     -1.502583
  C       3.555782     -1.255012     -1.846972
  C       2.441326     -1.914896     -1.341423
  C       1.583077     -1.229987     -0.502580
  N       1.822986      0.048527     -0.184690
  H       4.639670      0.613954     -1.879311
  H       4.241479     -1.771613     -2.505499
  H       2.235768     -2.945532     -1.592042
  H      -3.087116      2.322523      0.539958
  H      -2.244836     -0.619482      2.584268
  H       0.692520     -1.672691     -0.077403
  H       2.997581      1.733099     -0.347851
  H       0.270554      1.050662      2.232260
  H       1.106822      0.584931      0.497001
  O       0.152210      1.278708      1.301220
27
Coordinates from ORCA-job neb E -648.295757392569
  C      -2.886861      1.490883     -0.130714
  H      -2.246782      1.853253     -0.933624
  N      -1.852163     -0.732291     -0.125904
  O      -1.653905     -0.592991     -1.352855
  O      -1.611127     -1.830292      0.429742
  H      -3.083619      0.926554      2.529703
  C      -2.229983      0.377626      0.656444
  H      -0.981087      0.837933      0.991166
  H      -3.839123      1.176924     -0.573769
  C      -2.883363      0.010588      1.972466
  H      -3.836346     -0.511018      1.827452
  C       2.890773      0.703039     -0.660373
  C       3.787137      0.071103     -1.500038
  C       3.559515     -1.257392     -1.843684
  C       2.443346     -1.916132     -1.340441
  C       1.583268     -1.229961     -0.504501
  N       1.823104      0.048760     -0.187286
  H       4.644533      0.610939     -1.875079
  H       4.246660     -1.775047     -2.499870
  H       2.237840     -2.946879     -1.590639
  H      -3.088462      2.323518      0.544275
  H      -2.241453     -0.623413      2.581628
  H       0.691270     -1.671670     -0.081290
  H       2.999045      1.732524     -0.349012
  H       0.270575      1.055801      2.227620
  H       1.106285      0.586109      0.492410
  O       0.150925      1.281533      1.296177
27
Coordinates from ORCA-job neb E -648.295758367629
  C      -2.885868      1.491834     -0.130247
  H      -2.245605      1.855230     -0.932543
  N      -1.851068     -0.731326     -0.127212
  O      -1.651256     -0.590605     -1.353713
  O      -1.612073     -1.830323      0.427245
  H      -3.084339      0.925101      2.529134
  C      -2.228986      0.377980      0.656165
  H      -0.980753      0.838028      0.991464
  H      -3.837855      1.177865     -0.573877
  C      -2.883335      0.009622      1.971353
  H      -3.836052     -0.512078      1.825004
  C       2.889290      0.703365     -0.661384
  C       3.785129      0.071525     -1.501672
  C       3.558396     -1.257543     -1.843687
  C       2.443634     -1.916965     -1.338195
  C       1.583973     -1.230819     -0.501818
  N       1.822970      0.048429     -0.186199
  H       4.641420      0.611884     -1.878478
  H       4.245114     -1.775109     -2.500386
  H       2.238878     -2.948184     -1.587057
  H      -3.088091      2.323761      0.545436
  H      -2.241792     -0.624674      2.580598
  H       0.692930     -1.672929     -0.077003
  H       2.996901      1.733271     -0.351198
  H       0.270840      1.055225      2.228170
  H       1.106198      0.586016      0.493280
  O       0.151401      1.281418      1.296818
27
Coordinates from ORCA-job neb E -648.295759417946
  C      -2.887307      1.492627     -0.128891
  H      -2.248311      1.855907     -0.932226
  N      -1.852054     -0.730355     -0.128358
  O      -1.652359     -0.588541     -1.354761
  O      -1.613149     -1.829912      0.425035
  H      -3.083351      0.923816      2.530261
  C      -2.229575      0.378293      0.656138
  H      -0.981128      0.838509      0.990835
  H      -3.840234      1.179101     -0.570831
  C      -2.883157      0.008827      1.971381
  H      -3.836239     -0.512222      1.825063
  C       2.889402      0.703241     -0.662167
  C       3.785889      0.071115     -1.501545
  C       3.559827     -1.258298     -1.842649
  C       2.445077     -1.917769     -1.337197
  C       1.584732     -1.231329     -0.501763
  N       1.823106      0.048250     -0.186999
  H       4.642139      0.611526     -1.878370
  H       4.247061     -1.776099     -2.498622
  H       2.240842     -2.949250     -1.585395
  H      -3.088005      2.324493      0.547321
  H      -2.241535     -0.626440      2.579522
  H       0.693608     -1.673408     -0.077084
  H       2.996438      1.733424     -0.352699
  H       0.271131      1.056304      2.226779
  H       1.105969      0.586201      0.491852
  O       0.151182      1.281989      1.295369
27
Coordinates from ORCA-job neb E -648.295760050257
  C      -2.887138      1.493410     -0.128184
  H      -2.248434      1.857102     -0.931556
  N      -1.851692     -0.729523     -0.129435
  O      -1.651315     -0.586568     -1.355590
  O      -1.613650     -1.829747      0.422959
  H      -3.083296      0.922527      2.530393
  C      -2.229262      0.378516      0.655970
  H      -0.981056      0.838658      0.990859
  H      -3.840281      1.180165     -0.569858
  C      -2.883101      0.007983      1.970778
  H      -3.836225     -0.512789      1.823768
  C       2.888499      0.703459     -0.663117
  C       3.784998      0.071216     -1.502392
  C       3.559690     -1.258660     -1.842186
  C       2.445640     -1.918458     -1.335606
  C       1.585216     -1.231857     -0.500390
  N       1.822910      0.048134     -0.186838
  H       4.640681      0.611886     -1.880130
  H       4.246957     -1.776568     -2.498039
  H       2.242016     -2.950306     -1.582777
  H      -3.087520      2.324906      0.548580
  H      -2.241704     -0.627893      2.578519
  H       0.694562     -1.674113     -0.074910
  H       2.994970      1.733980     -0.354581
  H       0.271450      1.056195      2.226654
  H       1.105749      0.586261      0.491794
  O       0.151334      1.282084      1.295317
