!  NUMFREQ B3LYP def2-TZVP CPCM D3 
%pal nprocs 102 end
%cpcm epsilon 78.4 end 
*xyz 0 1 
C   0.39051965611373 -0.76551645804682 0.63503398403169
H   0.91334167570778 -1.51525809718587 0.04821741496773
H   0.83985357542309 0.21290414648087 0.47563860612739
H   0.34708718233337 -1.01849229141798 1.68708380908029
N   -1.00476539283747 -0.6836641149698 0.11122947468867
O   -1.92635342787765 -0.71541595607687 0.91094442619998
O   -1.14739999671018 -0.57493671941865 -1.09663954543951
H   3.42996929667795 -1.67929680295339 1.02758713137234
O   3.51224527561341 -1.1564877848353 1.83495481981332
H   3.43165051555595 -0.24149759157617 1.53752772915809
*
