!  NUMFREQ B3LYP def2-TZVP CPCM D3 
%pal nprocs 102 end
%cpcm epsilon 78.4 end 
*xyz 0 1 
C   -1.60748908712598 2.46889832920335 0.98802391584727
C   -1.67987565934061 1.08289920424795 1.03116613436651
C   -1.8932348185783 0.33686909310954 -0.13252861975857
C   -2.03964705377618 1.01827809865819 -1.34282939597987
C   -1.95254777281134 2.401720048918 -1.36684632529432
C   -1.73652551564142 3.14870330857121 -0.21784144324809
H   -1.43336275215403 3.02756275732301 1.89870063634978
H   -1.55417777833461 0.57092811380634 1.97552620092019
H   -2.20798409404026 0.48211028051299 -2.26456074791487
Cl   -2.12388407403339 3.23072251263014 -2.9049759270442
H   -1.66770072087373 4.22637449772795 -0.26499357124809
C   -1.99904053574139 -1.15439287683306 -0.00408194013424
C   -3.2457724841428 -1.64583031573057 0.70691524295441
H   -3.16211309419585 -2.69992777712148 0.96728384475086
H   -4.14349308026949 -1.51010068964111 0.09700681107758
H   -3.36942799055206 -1.07567960745826 1.62681112376122
N   -1.70629706955887 -1.88644274099001 -1.20138252039261
O   -2.31413690852922 -2.93574408510913 -1.44085039447453
O   -0.7647961667504 -1.5123590855646 -1.93393454281903
N   1.50916377215414 -0.42837258527161 -0.43681421704396
C   2.72999754054064 -1.20748985199217 -0.7831155505831
C   3.7642956749896 -1.0239575561753 0.31264352168934
O   4.06566005129725 0.35462199341257 0.51172017362325
C   2.90219664173447 1.08370226237817 0.89545700737474
C   1.82622121897604 1.0014679791383 -0.17065094640235
H   0.91523991509053 1.49795597399701 0.15752821876983
H   2.1682377676628 1.45257035777485 -1.10228774713146
H   3.20449314998996 2.1201001103475 1.03533080744022
H   2.51897867400429 0.69523615817212 1.84720411472545
H   4.6924094574218 -1.51784902969684 0.02987631325688
H   3.40106026142544 -1.46319176211355 1.25008981654872
H   3.10853431537283 -0.84457088311794 -1.73867939408761
H   -0.96062867706775 -1.46819425676418 0.73616136487078
H   0.81518758442757 -0.50992314171444 -1.18716492346984
H   2.4465544749962 -2.25461077445992 -0.8801326123771
H   0.34175929572576 -2.55392405721955 1.42916007525286
H   1.01068444522306 -0.8987346129888 0.42311961221424
O   0.14146109248531 -1.60942538996667 1.4539458836097
*
