!  opt B3LYP def2-TZVP CPCM D3 
%pal nprocs 102 end
%cpcm epsilon 78.4 end 
*xyz 0 1 
C   0.3696058 -0.43282024 0.20771834
H   0.54574421 -1.06847541 -0.66769437
N   0.62851876 -2.39602143 1.6156431
O   0.74820859 -3.15268855 0.61942385
O   0.66572469 -2.93529602 2.75477189
H   -0.12564486 1.52722579 0.89486771
C   0.47364235 -1.07500223 1.49461671
H   2.49599473 -0.52968116 1.93132783
H   0.35990392 -0.48022389 2.3974101
C   0.05540143 0.86138972 0.0686538
H   -0.03757106 1.35067156 -0.88515838
C   5.9286206 0.72825562 3.84438639
C   6.97772279 1.51350732 4.31346615
C   6.93185338 2.89678341 4.13803866
C   5.82992624 3.46816033 3.50139292
C   4.79920256 2.65003586 3.04553635
N   4.86383275 1.30292205 3.22120551
H   5.91888647 -0.37182352 3.95799855
H   7.82950682 1.03937404 4.81222973
H   5.76765699 4.55126282 3.35451926
H   3.90628008 3.05426492 2.53499659
H   7.75351858 3.52704526 4.49584799
H   3.70486377 -1.35246485 2.40983797
H   4.09001468 0.67943504 2.83380509
O   3.47355191 -0.52818733 1.94786833
*
