!  opt B3LYP def2-TZVP CPCM D3 
%pal nprocs 102 end
%cpcm epsilon 78.4 end 
*xyz 0 1 
C   0.52489893 -0.80576313 0.50159133
H   0.35166095 -0.1554615 -0.38020709
H   0.13560473 -0.2877358 1.40183176
H   1.62933077 -0.90386401 0.62442116
N   -0.08766212 -2.11604609 0.32628827
O   -0.5350751 -2.7007204 1.3024722
O   -0.13355109 -2.60562132 -0.79310729
H   3.90958288 -1.55402739 1.13313537
O   3.45573063 -1.12601158 1.87051362
H   3.60471583 -0.1850492 1.7231756
*
