!  opt B3LYP def2-TZVP CPCM D3 
%pal nprocs 102 end
%cpcm epsilon 78.4 end 
*xyz 0 1 
C   0.58278 -0.24516 -0.02623
H   0.62694 -0.36391 -1.11861
N   0.34789 -2.65843 0.26864
O   0.52101 -3.07231 -0.8696
O   -0.44516 -3.18836 1.02943
H   1.69366 -0.48363 2.56643
C   1.13503 -1.45939 0.71361
H   2.20712 -1.64611 0.40439
H   -0.459 -0.02237 0.24295
C   1.04296 -1.30405 2.22409
H   0.02383 -1.07083 2.56317
C   6.69846 -1.25761 -0.83461
C   7.93194 -1.46833 -1.45975
C   8.51864 -2.72945 -1.37087
C   7.85923 -3.73877 -0.67165
C   6.62838 -3.44773 -0.07284
N   6.06017 -2.22758 -0.1491
H   8.41917 -0.65996 -2.00297
H   9.48404 -2.92462 -1.84452
H   8.28947 -4.73621 -0.5892
H   1.17111 0.6534 0.21768
H   1.36213 -2.2107 2.75858
H   6.06879 -4.20788 0.48949
H   6.19296 -0.28332 -0.87574
H   3.71844 -1.84858 2.25942
H   4.69651 -1.48533 1.14327
O   4.12811 -1.09406 1.82657
*
