!  NUMFREQ B3LYP def2-TZVP CPCM D3 
%pal nprocs 102 end
%cpcm epsilon 78.4 end 
*xyz -1 1 
C   -0.8023827115863 0.76933095669972 1.04024930540783
C   0.54272600879917 0.70843801757604 1.37694254047654
C   1.39007057645903 -0.10748267910975 0.62960156586357
C   0.877901882285 -0.84812012123904 -0.43121457109632
C   -0.47214239345132 -0.74614417622074 -0.7338017434914
C   -1.34020787011393 0.05846123040901 -0.01613713085973
H   0.96851121974368 1.26412671692993 2.21296168169006
H   1.50860315034322 -1.49083065852037 -1.02486115316416
H   -2.3854715110331 0.12448361435798 -0.26923415950947
N   -1.00865592173222 -1.51370891424745 -1.86631262150331
O   -2.19550252185025 -1.39433463641503 -2.13089836583942
O   -0.23773893145126 -2.23253868048294 -2.48631527959067
C   2.84034310693705 -0.16144792690042 1.03450436790115
H   2.96081214238078 0.44894084900889 1.9408192470743
C   3.39518651594157 -1.5672669636111 1.23559527727708
H   4.4394205051183 -1.52394549199998 1.54126754768357
H   3.31149598566469 -2.16666841058809 0.32880893554074
H   2.82221740884558 -2.05384931598617 2.02508650251572
N   3.72205849706717 0.5506844213088 0.00933442704347
O   4.83808285163213 0.86556254310475 0.39026022768783
O   3.29928526425506 0.76241261008138 -1.11428871806732
O   2.19932978374694 4.03819754269731 4.49517462590688
H   3.02547954989768 4.28695308752337 4.92346393922766
N   -1.69508900016107 1.62901883672603 1.83263269786798
O   -2.86228220806774 1.72732470585525 1.47879664276223
O   -1.22592705757124 2.19948706219285 2.80535687682005
H   2.47934869035247 1.0768886122763 4.14986806671734
H   2.36700597582372 3.09089539923231 4.09655921851796
O   2.57134101172509 1.73886176934113 3.4558000491397
*
