!  NUMFREQ B3LYP def2-TZVP CPCM D3 
%pal nprocs 102 end
%cpcm epsilon 78.4 end 
*xyz -1 1 
C   -0.58031995055066 2.78502002539336 -0.1735063866235
C   0.03604379322727 1.55181130034571 -0.36019824187227
C   -0.68660563109875 0.37365498921093 -0.19403388610529
C   -2.03347460527598 0.43644549602748 0.16368660039888
C   -2.63250491868863 1.67366598823753 0.33330378700767
C   -1.92360021242001 2.8578322268908 0.17244699344441
H   -0.01468028219396 3.69902644533268 -0.30081388705913
H   1.08229367632547 1.48931593083065 -0.63173005000585
H   -2.61215439659334 -0.46789518505656 0.29809103088693
Cl   -4.33127500783231 1.7475318731162 0.76284398253186
H   -2.41277769681251 3.81152508332249 0.31418286513268
C   0.01726498196786 -0.94856374045289 -0.34537674328748
C   0.09609846164385 -1.75503097327983 0.94029148315403
H   0.70815769442891 -2.64426094310856 0.80828600682743
H   -0.89315574423096 -2.04782513091192 1.29531957329351
H   0.56247366309746 -1.12590148276632 1.6986949906537
N   -0.60376822859194 -1.76380931745943 -1.46282754145041
O   -0.48762282269501 -2.98058165352921 -1.4249769582255
O   -1.12830627984254 -1.16834269409892 -2.39494480437598
H   1.05119344028915 -0.76686738913618 -0.72401623269477
O   3.9090338662234 -1.26185078172345 1.32729397086647
H   3.16325924393884 -1.41455113096779 1.91589686050692
H   3.49438669750897 -0.92689889219987 0.42832503072502
H   3.34576193033142 -0.73092316038341 -1.61413838934859
O   2.87427832784399 -0.42252688363352 -0.83210005438079
*
