17
	Energy:    -297.7268600
C          0.46771       -1.16442        0.81932
H          0.95247       -1.09061       -0.18046
H          0.96404       -0.43312        1.49426
H          0.63973       -2.17725        1.23359
N         -0.95492       -0.87661        0.70248
O         -1.75931       -1.66548        1.17844
O         -1.30896        0.13798        0.12178
C          0.66869        2.71154       -3.76935
O          1.49605        3.29177       -3.03375
O          1.00305        1.92140       -4.67594
C         -0.80000        3.00790       -3.57727
H         -1.43323        2.29064       -4.11256
H         -1.04087        4.01194       -3.94799
H         -1.07306        2.97417       -2.51590
H          1.79817        1.46517       -1.85546
O          1.23239        0.80008       -1.44103
H          0.63878        1.30270       -0.87557
