40
	Energy:     -70.3490300
C         -0.48121        0.96218        1.30280
C          0.90580        0.82691        1.29481
C          1.50809       -0.29066        0.70797
C          0.71749       -1.26524        0.10068
C         -0.67147       -1.10678        0.09783
C         -1.28480       -0.00386        0.70453
H         -0.94474        1.83137        1.78014
H          1.52563        1.60557        1.75769
H          1.18049       -2.14425       -0.36501
H         -2.37677        0.09564        0.70705
N         -1.49512       -2.10560       -0.54016
O         -2.71114       -1.97476       -0.52410
O         -0.95833       -3.05879       -1.08701
C          3.00258       -0.44180        0.77124
C          3.42684       -1.75779        1.41743
H          4.51762       -1.82473        1.55209
H          3.11698       -2.63991        0.83708
H          2.98209       -1.86673        2.41970
N          3.59528       -0.40491       -0.60909
O          4.63515        0.21055       -0.76713
O          3.04406       -1.00235       -1.51869
H          3.46418        0.42671        1.34293
C          1.38950       -0.55534        5.74578
N          1.54462       -0.00142        6.98253
C          2.27621        1.27071        7.12763
C          3.04315        1.65392        5.84489
N          2.17392        1.55881        4.65206
C          1.72391        0.15404        4.48093
H          1.01783       -1.56573        5.67894
H          1.66862       -0.64452        7.76254
H          2.96975        1.21480        7.99535
H          1.53066        2.06364        7.37427
H          3.43786        2.69026        5.92343
H          3.92012        0.98545        5.69716
H          1.36461        2.18034        4.75567
H          0.85089        0.14131        3.78701
H          2.55512       -0.39301        3.96603
H          3.28243        2.01940        3.18120
H          4.70829        2.14612        2.61664
O          3.78848        2.26405        2.37575
