40
	Energy:    -101.7207100
C          1.31229        3.00108        2.05717
C          1.68832        1.67759        1.83338
C          0.72277        0.70811        1.55688
C         -0.62856        1.05868        1.49581
C         -0.96783        2.38393        1.72042
C         -0.03114        3.36882        2.00383
H          2.07375        3.75371        2.27743
H          2.74592        1.40172        1.87873
H         -1.38939        0.30344        1.27473
Cl        -2.62631        2.82243        1.64653
H         -0.32732        4.40531        2.18290
C          1.15763       -0.71845        1.35286
C          0.45850       -1.67465        2.31071
H          0.79899       -2.71278        2.18394
H         -0.63483       -1.66552        2.20322
H          0.68703       -1.39598        3.35387
N          0.83908       -1.11407       -0.06187
O          1.77003       -1.34854       -0.81633
O         -0.32516       -1.17964       -0.42077
N          6.15831       -0.38960        3.30505
C          6.61368       -1.61521        2.60383
C          8.10296       -1.55805        2.21608
C          8.37917       -0.31279        1.36384
C          7.89650        0.95447        2.08102
C          6.41405        0.80994        2.47006
H          2.28288       -0.81760        1.48344
H          6.41673       -2.48699        3.26377
H          5.98558       -1.75201        1.69621
H          8.38749       -2.47320        1.66485
H          8.73228       -1.54579        3.12559
H          9.46009       -0.23580        1.14152
H          7.87391       -0.40635        0.38313
H          8.03548        1.84048        1.43490
H          8.50977        1.14016        2.98250
H          6.06933        1.70385        3.03256
H          5.78234        0.74193        1.55687
H          6.65326       -0.30002        4.19936
H          2.97963        0.21336        3.97159
H          4.20747       -0.49632        3.38051
O          3.23114       -0.54147        3.43850
