10
	Energy:     -91.8891000
C          0.56394       -0.78932        0.40612
H          0.87302       -1.45300       -0.42740
H          1.04773        0.19880        0.23749
H          0.97752       -1.20221        1.34992
N         -0.88335       -0.63870        0.46568
O         -1.41996       -0.44427        1.54743
O         -1.53217       -0.70145       -0.56920
H          3.96644       -1.74909        0.21145
O          3.25667       -1.26342        0.64883
H          3.45185       -0.34098        0.44297
