40
Coordinates from ORCA-job neb_MEP E -1063.550555331640
  C      -4.141833     -0.750973     -1.300369
  C      -2.879779     -0.411098     -0.822886
  C      -1.776015     -1.220265     -1.091494
  C      -1.938359     -2.370360     -1.855736
  C      -3.203192     -2.683865     -2.329550
  C      -4.316123     -1.895993     -2.062307
  H      -4.991434     -0.118758     -1.080591
  H      -2.742377      0.487275     -0.234751
  H      -1.104538     -3.015410     -2.087832
  H      -5.285810     -2.175029     -2.445002
  N      -3.368210     -3.894179     -3.143348
  O      -4.493382     -4.180651     -3.530969
  O      -2.374380     -4.562416     -3.397632
  C      -0.420290     -0.841071     -0.540559
  C       0.262446     -1.925837      0.266177
  H       1.236195     -1.587343      0.618474
  H       0.389747     -2.843150     -0.305203
  H      -0.364852     -2.138826      1.132599
  N       0.446548     -0.408996     -1.730886
  O       0.209214      0.688548     -2.209076
  O       1.300658     -1.169805     -2.149485
  H      -0.520882      0.077012      0.036768
  C       3.351421      2.204702      3.103577
  N       4.169531      1.739858      2.081485
  C       3.800729      2.100708      0.713242
  C       2.309712      1.868406      0.502097
  N       1.483735      2.545701      1.512608
  C       1.878973      2.112756      2.868200
  H       3.738111      2.082395      4.107979
  H       5.159269      1.818467      2.267425
  H       4.379121      1.490512      0.017876
  H       4.030760      3.156888      0.511814
  H       2.016492      2.212314     -0.489781
  H       2.095673      0.798611      0.566183
  H       1.635734      3.548762      1.436566
  H       1.335440      2.707136      3.603430
  H       1.524747      1.073467      2.972957
  H      -1.412702      1.410824      1.989833
  H      -0.230425      2.165382      1.306483
  O      -1.189674      1.904299      1.191680
40
Coordinates from ORCA-job neb_MEP E -1063.548426706701
  C      -3.919456     -0.386291     -1.304611
  C      -2.608795     -0.301633     -0.848842
  C      -1.682161     -1.300715     -1.152512
  C      -2.074523     -2.387076     -1.925804
  C      -3.389054     -2.453821     -2.363506
  C      -4.325523     -1.471276     -2.067268
  H      -4.629174      0.391569     -1.057930
  H      -2.297403      0.527797     -0.228067
  H      -1.384870     -3.176419     -2.182387
  H      -5.340757     -1.561384     -2.421792
  N      -3.806252     -3.612665     -3.160296
  O      -4.984149     -3.700527     -3.481417
  O      -2.958337     -4.442061     -3.466131
  C      -0.269889     -1.182547     -0.626630
  C       0.346631     -2.464702     -0.109286
  H       1.335773     -2.272023      0.304353
  H       0.432530     -3.223186     -0.883917
  H      -0.293850     -2.849634      0.685239
  N       0.574450     -0.586289     -1.761287
  O       0.412138      0.612201     -1.987381
  O       1.324801     -1.318102     -2.381270
  H      -0.253577     -0.403848      0.132114
  C       3.060625      3.150562      2.961084
  N       4.094985      2.559973      2.245172
  C       3.817615      2.177258      0.858426
  C       2.480751      1.445356      0.769143
  N       1.385646      2.208833      1.388752
  C       1.711572      2.532262      2.794780
  H       3.334081      3.586182      3.915931
  H       4.995483      3.000699      2.374006
  H       4.623455      1.533938      0.500787
  H       3.776959      3.065759      0.210791
  H       2.235408      1.253528     -0.276387
  H       2.547167      0.479305      1.279652
  H       1.261714      3.077338      0.872325
  H       0.936230      3.185967      3.196562
  H       1.643499      1.579253      3.347288
  H      -0.877471      0.333867      2.475563
  H      -0.176269      1.406795      1.586437
  O      -1.060004      0.985758      1.788317
40
Coordinates from ORCA-job neb_MEP E -1063.545830355400
  C      -3.897328     -0.307103     -1.314093
  C      -2.569852     -0.291880     -0.905040
  C      -1.708797     -1.342908     -1.218063
  C      -2.186171     -2.421394     -1.955430
  C      -3.512450     -2.415182     -2.358607
  C      -4.384898     -1.378512     -2.049380
  H      -4.553267      0.514045     -1.060740
  H      -2.188864      0.537765     -0.321959
  H      -1.547771     -3.248138     -2.222065
  H      -5.411073     -1.412897     -2.377920
  N      -4.008921     -3.545667     -3.148557
  O      -5.200348     -3.572700     -3.435481
  O      -3.212467     -4.410293     -3.489431
  C      -0.280980     -1.253622     -0.759415
  C       0.351395     -2.547849     -0.259103
  H       1.324218     -2.342018      0.187132
  H       0.467258     -3.285406     -1.052207
  H      -0.299329     -2.962946      0.512178
  N       0.579388     -0.700744     -1.903044
  O       1.467875      0.079989     -1.606266
  O       0.357188     -1.069680     -3.038988
  H      -0.211620     -0.495393      0.015668
  C       2.897065      3.513134      2.849336
  N       4.027997      2.933839      2.286961
  C       3.861218      2.232829      1.015493
  C       2.640200      1.329799      1.082843
  N       1.432013      2.066232      1.481182
  C       1.638810      2.711067      2.791388
  H       3.073930      4.162474      3.697617
  H       4.858146      3.507120      2.328996
  H       4.757756      1.646649      0.808776
  H       3.725820      2.946284      0.188696
  H       2.466300      0.864403      0.119158
  H       2.798566      0.535232      1.817401
  H       1.243111      2.784641      0.785984
  H       0.772457      3.331022      3.024692
  H       1.650603      1.891576      3.529945
  H      -0.502406     -0.195720      2.413505
  H       0.060504      1.074597      1.688686
  O      -0.775278      0.537355      1.850153
40
Coordinates from ORCA-job neb_MEP E -1063.541662456858
  C      -3.937811     -0.382749     -1.385755
  C      -2.604320     -0.337279     -1.006449
  C      -1.727916     -1.386070     -1.295685
  C      -2.201063     -2.484546     -2.006201
  C      -3.537077     -2.502757     -2.392859
  C      -4.422669     -1.477424     -2.083638
  H      -4.599177      0.433849     -1.129648
  H      -2.223299      0.517626     -0.464824
  H      -1.562033     -3.316346     -2.263493
  H      -5.456779     -1.536129     -2.384872
  N      -4.039065     -3.646292     -3.162875
  O      -5.228509     -3.675346     -3.450853
  O      -3.244822     -4.519942     -3.490458
  C      -0.317073     -1.256209     -0.774106
  C       0.314893     -2.473579     -0.122329
  H       1.232606     -2.174308      0.379907
  H       0.535944     -3.285485     -0.813165
  H      -0.381737     -2.834712      0.635328
  N       0.592372     -0.632201     -1.818013
  O       1.796029     -0.794378     -1.698397
  O       0.087350      0.080622     -2.672265
  H      -0.345028     -0.460242      0.023407
  C       2.974451      3.445616      2.934560
  N       4.069665      2.859986      2.312461
  C       3.858293      2.256837      0.996121
  C       2.601566      1.402807      1.018774
  N       1.440250      2.168245      1.497305
  C       1.691200      2.693148      2.855642
  H       3.186549      4.062699      3.797273
  H       4.923041      3.395190      2.378093
  H       4.727109      1.651828      0.736333
  H       3.738836      3.032046      0.225419
  H       2.385900      1.012968      0.024580
  H       2.729233      0.551876      1.693557
  H       1.275085      2.949250      0.865020
  H       0.849297      3.317267      3.156117
  H       1.689186      1.811860      3.519322
  H      -0.453144     -0.189083      2.194191
  H       0.210324      1.174594      1.580959
  O      -0.627657      0.546760      1.591516
40
Coordinates from ORCA-job neb_MEP E -1063.536299619093
  C      -3.916335     -0.402334     -1.403300
  C      -2.567504     -0.359480     -1.073453
  C      -1.703309     -1.417235     -1.384168
  C      -2.233731     -2.523474     -2.046342
  C      -3.577955     -2.535053     -2.398724
  C      -4.440352     -1.493981     -2.081243
  H      -4.563138      0.421823     -1.133065
  H      -2.177050      0.506173     -0.557850
  H      -1.605400     -3.359973     -2.312646
  H      -5.480970     -1.535686     -2.363354
  N      -4.090298     -3.670778     -3.167919
  O      -5.280826     -3.688445     -3.459403
  O      -3.304367     -4.550974     -3.500107
  C      -0.265082     -1.404063     -1.029968
  C       0.322773     -2.465629     -0.147428
  H       1.193732     -2.081775      0.384700
  H       0.648033     -3.355816     -0.699623
  H      -0.417104     -2.783556      0.589180
  N       0.550309     -0.628910     -1.752803
  O       1.825358     -0.738735     -1.635292
  O       0.084643      0.235637     -2.583261
  H      -0.415040     -0.178102      0.654261
  C       2.968117      3.432573      2.928813
  N       4.058529      2.849163      2.307945
  C       3.845714      2.256536      0.989843
  C       2.609070      1.380941      1.000939
  N       1.439913      2.179104      1.489352
  C       1.687333      2.684918      2.883390
  H       3.168405      4.068039      3.778424
  H       4.917065      3.375859      2.382593
  H       4.708972      1.648207      0.724328
  H       3.726977      3.035757      0.224848
  H       2.375267      0.996348      0.009397
  H       2.716666      0.543820      1.690675
  H       1.271679      2.966012      0.858481
  H       0.845990      3.308911      3.174820
  H       1.683247      1.781662      3.509354
  H      -0.611900     -0.374281      2.173627
  H       0.595334      1.570376      1.488986
  O      -0.592767      0.306420      1.485991
40
Coordinates from ORCA-job neb_MEP E -1063.539365143833
  C      -3.758602     -0.209797     -1.330505
  C      -2.407436     -0.235847     -1.010128
  C      -1.603424     -1.341388     -1.327564
  C      -2.198102     -2.414399     -1.988928
  C      -3.542938     -2.356467     -2.327741
  C      -4.347401     -1.273620     -2.001045
  H      -4.360626      0.646022     -1.054923
  H      -1.973055      0.608550     -0.494119
  H      -1.611297     -3.275314     -2.268498
  H      -5.392553     -1.265374     -2.268263
  N      -4.116946     -3.464799     -3.090130
  O      -5.314671     -3.435666     -3.350471
  O      -3.373405     -4.371434     -3.447756
  C      -0.172855     -1.431979     -0.984598
  C       0.388040     -2.671867     -0.353604
  H       1.244302     -2.436281      0.279231
  H       0.734914     -3.400928     -1.096240
  H      -0.380936     -3.146034      0.257534
  N       0.673445     -0.564848     -1.553729
  O       1.940842     -0.732959     -1.434400
  O       0.250040      0.433567     -2.238942
  H      -0.423066     -0.524326      0.866795
  C       2.675163      3.607858      2.634632
  N       3.852852      3.045883      2.171116
  C       3.774670      2.210865      0.975433
  C       2.646017      1.211257      1.109879
  N       1.371724      1.928145      1.428198
  C       1.486611      2.720521      2.696689
  H       2.764279      4.391894      3.371958
  H       4.648326      3.667595      2.175619
  H       4.713308      1.671684      0.851153
  H       3.609214      2.821972      0.077755
  H       2.492277      0.652541      0.187328
  H       2.823026      0.519907      1.933411
  H       1.126253      2.549583      0.655030
  H       0.563792      3.281806      2.829184
  H       1.548051      1.966830      3.493593
  H      -0.368088     -0.602590      2.413164
  H       0.604707      1.227545      1.529626
  O      -0.586450     -0.008109      1.684254
40
Coordinates from ORCA-job neb_MEP E -1063.545510900554
  C      -3.584191     -0.024741     -1.238462
  C      -2.225644     -0.124470     -0.967125
  C      -1.491539     -1.273087     -1.314639
  C      -2.178222     -2.306470     -1.965471
  C      -3.527072     -2.169250     -2.255358
  C      -4.259349     -1.045718     -1.893481
  H      -4.126790      0.859192     -0.929778
  H      -1.722995      0.686018     -0.463399
  H      -1.661198     -3.201431     -2.273495
  H      -5.312150     -0.977853     -2.118177
  N      -4.195838     -3.242184     -2.995478
  O      -5.391572     -3.123917     -3.238474
  O      -3.532088     -4.210233     -3.349889
  C      -0.073369     -1.474275     -1.010725
  C       0.442216     -2.834600     -0.649211
  H       1.251568     -2.745515      0.076268
  H       0.837663     -3.394916     -1.503162
  H      -0.360386     -3.419927     -0.200467
  N       0.826023     -0.505798     -1.229013
  O       2.079514     -0.781936     -1.177374
  O       0.478573      0.703970     -1.498481
  H      -0.419572     -0.904105      1.098862
  C       2.316174      3.736182      2.230563
  N       3.595458      3.269689      1.982257
  C       3.729176      2.194508      1.005662
  C       2.738454      1.089524      1.304284
  N       1.353497      1.654145      1.361520
  C       1.249751      2.718835      2.413274
  H       2.236869      4.660230      2.783333
  H       4.299557      3.988235      1.894545
  H       4.738093      1.787796      1.053379
  H       3.559365      2.564816     -0.014547
  H       2.745831      0.335139      0.521267
  H       2.926320      0.632714      2.275154
  H       1.097618      2.008205      0.433724
  H       0.257182      3.159707      2.360361
  H       1.332621      2.174281      3.364565
  H      -0.213667     -0.976450      2.626025
  H       0.676060      0.894855      1.583624
  O      -0.491940     -0.381167      1.917536
40
Coordinates from ORCA-job neb_MEP E -1063.553757736481
  C      -3.151986      0.351369     -1.000164
  C      -1.811160      0.038716     -0.823770
  C      -1.269484     -1.179589     -1.283799
  C      -2.149617     -2.063740     -1.927705
  C      -3.482937     -1.724004     -2.095859
  C      -4.015549     -0.524089     -1.643407
  H      -3.530936      1.292615     -0.623768
  H      -1.170174      0.740305     -0.318175
  H      -1.802600     -3.008004     -2.313996
  H      -5.059009     -0.292256     -1.788234
  N      -4.362627     -2.671135     -2.787135
  O      -5.547010     -2.380169     -2.910427
  O      -3.880260     -3.714026     -3.214179
  C       0.117868     -1.598748     -1.091800
  C       0.491785     -3.051466     -1.062187
  H       1.241312     -3.230802     -0.291389
  H       0.924326     -3.387088     -2.010991
  H      -0.378191     -3.669028     -0.847868
  N       1.126124     -0.727455     -1.026628
  O       2.332910     -1.131674     -0.902260
  O       0.929899      0.562317     -1.093343
  H      -0.130011     -1.539966      1.399264
  C       1.535872      3.652103      1.325225
  N       2.912427      3.571667      1.466217
  C       3.540467      2.286705      1.165821
  C       2.793406      1.163936      1.860288
  N       1.349372      1.222751      1.494826
  C       0.737804      2.530884      1.887535
  H       1.105314      4.643182      1.323304
  H       3.419523      4.363440      1.096961
  H       4.571193      2.299704      1.517647
  H       3.549152      2.096280      0.085288
  H       3.175266      0.194151      1.549947
  H       2.860702      1.253133      2.944696
  H       1.237790      1.069857      0.452581
  H      -0.287190      2.548180      1.521914
  H       0.711687      2.531981      2.986311
  H       0.550228     -1.788621      2.751895
  H       0.843699      0.437614      1.938446
  O      -0.029382     -1.169030      2.288917
