24
	Energy:    -509.8436300
C          0.45758       -1.18866        0.52815
H          0.81033       -1.90111       -0.24696
H          1.00259       -0.23014        0.35333
H          0.77117       -1.57491        1.51733
N         -0.98173       -0.98608        0.45028
O         -1.65338       -1.10776        1.46287
O         -1.48728       -0.71452       -0.63058
H          0.89026        4.28363        0.28204
O          1.73101        4.04532       -0.04778
H          2.23045        1.25090        0.27051
O          1.88363        1.80884        0.92452
H          1.84765        2.95872        0.39519
H         -2.50041        1.68758        1.49912
O         -3.19539        2.27938        1.79454
H         -2.75413        3.10550        2.03868
H         -0.90370        3.33185        1.66512
O         -1.17828        4.22016        1.95195
H         -0.70784        4.38109        2.78095
H          0.03149        1.76941        0.49067
O         -0.58866        1.69161        1.25813
H          0.07355        1.42330        1.93128
H          3.55167       -1.04380       -0.92190
O          3.07411       -0.60508       -0.20967
H          3.76287       -0.22664        0.34977
