!  opt B3LYP def2-TZVP CPCM D3 
%pal nprocs 102 end
%cpcm epsilon 78.4 end 
*xyz 0 1 
C   0.85144 -0.54122 -0.86714
H   1.0022 -0.78842 -1.92766
N   0.73359 -2.94168 -0.43716
O   0.60584 -3.17474 -1.67915
O   0.66066 -3.9505 0.33538
H   1.78652 -0.61245 1.67489
C   0.97413 -1.72559 0.02784
H   3.06739 -2.07182 -0.77617
H   -0.15174 -0.09074 -0.78615
C   1.16751 -1.50033 1.48684
H   0.20992 -1.34285 2.00401
C   4.66666 -2.47575 -4.17494
C   4.9571 -3.01389 -5.42514
C   5.04596 -4.39805 -5.57433
C   4.83077 -5.21909 -4.4671
C   4.54177 -4.6446 -3.23258
N   4.46985 -3.29222 -3.10594
H   5.1118 -2.34671 -6.279
H   5.27592 -4.83598 -6.55202
H   4.88621 -6.30896 -4.55904
H   1.57447 0.24398 -0.61214
H   1.66175 -2.35257 1.97643
H   4.36267 -5.25396 -2.32769
H   4.58436 -1.3878 -4.0075
H   4.24103 -2.7166 -0.06311
H   4.27265 -2.86165 -2.15238
O   4.04546 -2.12565 -0.83098
*
