!  NUMFREQ B3LYP def2-TZVP CPCM D3 
%pal nprocs 102 end
%cpcm epsilon 78.4 end 
*xyz 0 1 
C   1.07205215650549 0.19798073810576 -0.27497704010147
H   0.63028293626531 0.9677858080735 0.34854260628356
N   0.06002501587718 -1.72234945552987 0.87574051613548
O   -0.74501957584368 -1.22990243552094 1.64471618702646
O   0.73589739862737 -2.70812380971325 1.12965291123835
H   2.69751872458075 -0.39268835445276 -1.47526740170704
C   0.2614746448979 -1.04717996895982 -0.46184601462866
H   -0.7444604610412 -0.8301974531602 -0.81805711497307
H   0.76152704194248 -1.77063299246105 -1.0998164138414
C   2.25070446483815 0.37443458851328 -0.8556014371618
H   2.8024369796413 1.29828061409241 -0.7332236425855
C   6.38470366512019 -2.97476581739349 -0.40381026962147
C   7.64831781816866 -2.48878363201367 -0.07372455738497
C   7.69947571379139 -1.24510220374899 0.55869475727935
C   6.52276870767386 -0.56282322898185 0.83194247357344
C   5.31639880510381 -1.1386906407236 0.45769105629091
N   5.2469449146324 -2.32256675436519 -0.15096485384861
H   6.28753488793315 -3.93527976017292 -0.90015346044661
H   6.53659537548178 0.40213998605886 1.32101267206919
H   4.37622241458846 -0.64101045132113 0.65196197898938
C   8.89227189845102 -3.27183182198279 -0.3822915559987
H   9.40658150624821 -3.5564029308224 0.53903424757821
H   9.59109840732525 -2.67697865712237 -0.97407873677041
H   8.65766478441985 -4.18132556825954 -0.93519728336804
H   8.656520901513 -0.8173116103768 0.83474590273378
H   2.20539042884407 -3.32489177529413 -0.15655797791178
O   2.82933550333978 -3.59808794919645 -0.84273634440006
H   3.66445494107355 -3.11212446327041 -0.63798120444852
*
