17
	Energy:    -303.5192300
C          0.35529       -0.93163        0.64222
H          0.68069       -1.46165       -0.27979
H          0.89071        0.04556        0.66849
H          0.66580       -1.52784        1.52427
N         -1.08080       -0.69146        0.63977
O         -1.70195       -0.78019        1.68829
O         -1.62880       -0.38732       -0.41056
C          5.45251       -1.62307       -0.52050
O          5.30701       -1.67935       -1.75596
O          5.29352       -2.58526        0.24812
C          5.87435       -0.26924        0.04138
Cl         6.55616       -0.46910        1.67036
H          5.00721        0.41096        0.12951
H          6.64812        0.21048       -0.58000
H          2.88821       -0.38852        1.28473
O          3.02733       -0.75081        0.40345
H          3.31575       -1.66021        0.56279
